Flow Title=Existing_Combined
Program Version=4.10
Number of Profiles= 4 
Profile Names=10-Year,50-Year,100-Year,500-Year
River Rch & RM=287 Split,Main            ,404581  
       1     790    1294    2774
River Rch & RM=Coal Creek,Main            ,134702  
     110    1780    3590    6900
River Rch & RM=Coal Creek,Main            ,122078  
     110    1780    3740    7390
River Rch & RM=Coal Creek,Main            ,107917  
     220    1780    3740    7390
River Rch & RM=Coal Creek,Main            ,104986  
     460    1780    3740    7390
River Rch & RM=Coal Creek,Main            ,102154  
    1080    2700    3740    7460
River Rch & RM=Coal Creek,Main            ,87521   
    1260    3430    4650    7460
River Rch & RM=Coal Creek,Main            ,81153   
    1360    3650    4930    7460
River Rch & RM=Coal Creek,Main            ,76304   
    1360    3710    5190    8420
River Rch & RM=Coal Creek,Main            ,72504   
    1360    3750    5630   11000
River Rch & RM=Coal Creek,Main            ,67891   
    3700    9310   12500   19100
River Rch & RM=Coal Creek,Lower           ,66572   
    3700    9310   12500   19100
River Rch & RM=Coal Creek,Lower           ,53821   
    3760    9490   12700   19400
River Rch & RM=Coal Creek,Lower           ,11593   
    1740    2490    2920    3640
River Rch & RM=Coal Creek,Lower           ,9736    
    1505    1505    1505    1505
River Rch & RM=Coal Creek,Lower           ,8490    
    1870    3980    5330    8190
River Rch & RM=Coal Creek,Lower           ,8215    
    1970    5700    8010   12800
River Rch & RM=Coal Creek,Lower           ,6503    
    3760    9490   12700   19400
River Rch & RM=OldTownSplit,Erie            ,304312  
       1       1       1    2191
River Rch & RM=OldTownSplit,Erie            ,301608  
       1       1       1    3135
River Rch & RM=Rock Creek,Main            ,270732  
     260     860    1190    1800
River Rch & RM=Rock Creek,Main            ,263735  
     260     980    1400    2190
River Rch & RM=Rock Creek,Main            ,257486  
     290    1200    1740    2780
River Rch & RM=Rock Creek,Main            ,252180  
     580    1680    2310    3480
River Rch & RM=Rock Creek,Main            ,251419  
     860    2020    2750    4090
River Rch & RM=Rock Creek,Main            ,245621  
    1190    2830    3720    5410
River Rch & RM=Rock Creek,Main            ,241667  
    1480    3440    4520    6510
River Rch & RM=Rock Creek,Main            ,228859  
    2480    5490    7170   10300
River Rch & RM=Rock Creek,Main            ,217781  
    3220    7340    9580   13800
River Rch & RM=Rock Creek,Main            ,213487  
    3420    7760   10100   14700
River Rch & RM=Rock Creek,Main            ,200182  
    3700    9310   12500   19100
River Rch & RM=RRSplit,Split           ,504270  
    2020    7000    9780   15800
River Rch & RM=RRSplit,Split           ,502149  
    2260    7990   11200   17900
River Rch & RM=RRSplit,Split           ,502025  
    1900    5510    7380   11200
River Rch & RM=RRSplit,Split           ,501482  
    1800    3790    4700    6570
Boundary for River Rch & Prof#=287 Split,Main            , 1 
Up Type= 0 
Dn Type= 1 
Dn Known WS=5182
Boundary for River Rch & Prof#=287 Split,Main            , 2 
Up Type= 0 
Dn Type= 1 
Dn Known WS=5188.14
Boundary for River Rch & Prof#=287 Split,Main            , 3 
Up Type= 0 
Dn Type= 1 
Dn Known WS=5188.95
Boundary for River Rch & Prof#=287 Split,Main            , 4 
Up Type= 0 
Dn Type= 1 
Dn Known WS=5191.24
Boundary for River Rch & Prof#=Coal Creek,Main            , 1 
Up Type= 3 
Up Slope=0.01
Dn Type= 0 
Boundary for River Rch & Prof#=Coal Creek,Main            , 2 
Up Type= 3 
Up Slope=0.01
Dn Type= 0 
Boundary for River Rch & Prof#=Coal Creek,Main            , 3 
Up Type= 3 
Up Slope=0.01
Dn Type= 0 
Boundary for River Rch & Prof#=Coal Creek,Main            , 4 
Up Type= 3 
Up Slope=0.01
Dn Type= 0 
Boundary for River Rch & Prof#=Coal Creek,Lower           , 1 
Up Type= 0 
Dn Type= 1 
Dn Known WS=4960.2
Boundary for River Rch & Prof#=Coal Creek,Lower           , 2 
Up Type= 0 
Dn Type= 1 
Dn Known WS=4960.2
Boundary for River Rch & Prof#=Coal Creek,Lower           , 3 
Up Type= 0 
Dn Type= 1 
Dn Known WS=4960.2
Boundary for River Rch & Prof#=Coal Creek,Lower           , 4 
Up Type= 0 
Dn Type= 1 
Dn Known WS=4960.2
Boundary for River Rch & Prof#=OldTownSplit,Erie            , 1 
Up Type= 0 
Dn Type= 1 
Dn Known WS=5010
Boundary for River Rch & Prof#=OldTownSplit,Erie            , 2 
Up Type= 0 
Dn Type= 1 
Dn Known WS=5010
Boundary for River Rch & Prof#=OldTownSplit,Erie            , 3 
Up Type= 0 
Dn Type= 1 
Dn Known WS=5010
Boundary for River Rch & Prof#=OldTownSplit,Erie            , 4 
Up Type= 0 
Dn Type= 1 
Dn Known WS=5017.24
Boundary for River Rch & Prof#=Rock Creek,Main            , 1 
Up Type= 3 
Up Slope=0.01
Dn Type= 0 
Boundary for River Rch & Prof#=Rock Creek,Main            , 2 
Up Type= 3 
Up Slope=0.01
Dn Type= 0 
Boundary for River Rch & Prof#=Rock Creek,Main            , 3 
Up Type= 3 
Up Slope=0.01
Dn Type= 0 
Boundary for River Rch & Prof#=Rock Creek,Main            , 4 
Up Type= 3 
Up Slope=0.01
Dn Type= 0 
Boundary for River Rch & Prof#=RRSplit,Split           , 1 
Up Type= 0 
Dn Type= 1 
Dn Known WS=4990.83
Boundary for River Rch & Prof#=RRSplit,Split           , 2 
Up Type= 0 
Dn Type= 1 
Dn Known WS=4990.97
Boundary for River Rch & Prof#=RRSplit,Split           , 3 
Up Type= 0 
Dn Type= 1 
Dn Known WS=4991.37
Boundary for River Rch & Prof#=RRSplit,Split           , 4 
Up Type= 0 
Dn Type= 1 
Dn Known WS=4991.89
Initial Flow Split=RRSplit         ,Split           ,504646.8,
 -116.89 -210.63  168.29  810.25
Initial Flow Split=RRSplit         ,Split           ,502140  ,
   73.39 1386.99 2266.23 3811.05
DSS Import StartDate=
DSS Import StartTime=
DSS Import EndDate=
DSS Import EndTime=
DSS Import GetInterval= 0 
DSS Import Interval=
DSS Import GetPeak= 0 
DSS Import FillOption= 0 
