Geom Title=FHAD South Platte River
Program Version=4.10
Viewing Rectangle= 3123170.28 , 3190662.56 , 1793007.58 , 1627697.09 

Junct Name=Overland        
Junct Desc=, 0 , 0 ,-1 ,0
Junct X Y & Text X Y=3141596,1677033.75,3141596,1677033.75
Up River,Reach=South Platte    ,1               
Up River,Reach=Overland Park Sp,1               
Dn River,Reach=South Platte    ,2               
Junc L&A=108.28,0
Junc L&A=0,0

River Reach=Overland Park Sp,1               
Reach XY= 650 
3141540.013230551672660.526165283141539.932193961672662.75910044
3141539.923335721672663.004178693141539.910540461672663.35588403
3141539.89741713 1672663.72235313141539.208442141672682.71608153
3141539.203520881672682.852236113141539.057851881672686.87125695
3141539.03718263 1672687.43884113141539.029308631672687.65242335
3141538.788495471672694.300047863141538.688758131672697.04413685
3141538.642498371672698.320381033141538.586396131672699.86434118
3141538.032919541672715.131042943141537.944665131672717.55820344
3141537.942696631672717.618898853141537.939087721672717.72027661
3141537.86559705 1672719.74225423141537.78292005 1672722.0214491
3141537.778983041672722.125451523141537.692369041672724.52045986
3141537.623471541672726.416781533141537.619534551672726.52439286
3141537.550637051672728.42432344 3141537.53784181672728.77734111
3141537.493222461672730.007981693141537.485020381672730.23895235
3141537.264876471672736.304557033141537.255690131672736.55947778
3141537.232724291672737.187429283141537.164482971672739.07029952
3141537.111005381672740.548643023141537.088695721672741.16642395
3141537.016845461672743.14607878 3141536.97485081672744.29961978
3141536.949260291672745.002702363141536.911530721672746.05060053
3141536.879050461672746.941018693141536.255692121672764.12897643
3141535.922359471672773.316950193141535.912516971672773.59122786
3141535.894472381672774.091554943141535.842963291672775.50625028
3141535.597885041672782.267719693141535.538173881672783.91174528
3141535.490273711672785.232936863141535.416783051672787.25688294
3141535.303922391672790.370065693141534.929907381672800.68008444
3141534.872492791672802.263086533141534.82098371 1672803.6905771
3141534.749133471672805.66432644 3141534.67564281672807.69450611
 3141534.66580031672807.962550193141534.60510488 1672809.6374156
3141534.552283471672811.095746033141534.482729791672813.01601778
3141534.443359791672814.100333183141534.26127355 1672819.1177116
3141534.179580791672821.371972193141534.134961471672822.60162853
 3141534.11658881672823.108517273141534.078859211672824.14722911
3141534.002743881672826.246306273141533.902678461672829.00515902
3141533.842311131672830.667557273141533.775710211672832.50219928
3141533.658912551672835.724961863141533.632665891672836.45199452
3141533.583781471672837.79976086 3141533.55556631672838.57272519
3141533.286209881672846.006765443141533.279320141672846.19410102
3141532.997168471672853.969676023141532.989294471672854.19178843
3141532.945659381672855.391917273141532.848546711672858.07301427
3141532.781945791672859.905687783141532.74421622 1672860.9503051
3141532.68319272 1672862.63140413141532.507668141672867.46472777
3141532.494216711672867.835133853141531.844283631672885.75799827
 3141531.14021681672905.167408273141531.131358551672905.41445503
3141531.044744551672907.806838693141530.377751131672926.19328485
 3141530.23273831672930.195573433141530.182869631672931.56466518
3141530.170402471672931.91112119 3141529.5791963 1672948.2139101
3141529.465679471672951.337919613141529.453540381672951.67486119
3141529.402687461672953.078073613141529.334118051672954.96750553
3141529.13890846 1672960.35397773141528.950916711672965.53572586
 3141528.92368581672966.286052443141528.863318461672967.95107536
3141528.80885664 1672969.45238473141528.709775461672972.17842911
3141528.68615346 1672972.83787663141528.616271721672974.75814836
3141528.611350461672974.893646783141528.582807211672975.68235911
 3141525.74258981673053.99617885 3141525.64613331673056.64807644
3141525.576579631673058.569004363141525.487340961673061.02995744
3141525.366934371673064.348192273141524.82231605 1673079.3632541
3141531.120170971673471.931022943141534.654203371673539.78444494
3141533.240590411673609.758286383141534.654203371673675.49128895
3141522.638493221673724.260936013141507.088750681673746.17193687
3141448.423812911673756.774034053141388.345262181673763.13529237
3141348.057292861673786.459906183141315.54419587 1673808.3709135
3141254.052032181673929.234821443141205.282385121673978.00446851
 3141168.5284482 1673985.07253333141107.036284511673997.08824344
3141037.062443071674012.637985993141025.753539411674021.11966374
3141016.565055181674030.308147973141005.962957991674038.08301924
3140998.188086721674045.151084033140991.826828411674050.80553586
3140988.292796011674054.339568263140972.036246991674063.52805249
3140950.832052611674078.370988553140932.455084151674091.80031165
3140914.784922171674098.161569973140894.99434076 1674103.8160218
3140882.97863061 1674107.35005423140871.669726941674115.12492547
3140861.774436241674127.140635613140854.706371441674132.08828097
3140840.570241861674147.638023513140830.377838791674161.68556452
3140830.377838791674161.875852853140830.377838791674167.68161552
3140830.377838791674167.947363023140830.377838791674168.12452802
3140830.377838791674170.582856453140830.377838791674170.79348594
3140830.377838791674171.803654523140830.377838791674172.37747227
3140830.377838791674174.498531033140830.377838791674175.96637586
3140830.377838791674177.574640363140830.377838791674180.11334918
3140830.377838791674181.586115273140830.377838791674183.56347352
3140830.377838791674185.156318113140830.377838791674190.75013894
3140830.377838791674192.060175693140830.377838791674195.60249144
3140830.377838791674198.135294783140830.377838791674198.18647577
3140830.377838791674200.282600193140830.377838791674201.11429144
3140830.377838791674203.435481033140830.377838791674203.48436543
3140830.377838791674203.917435443140830.37783879 1674207.1602111
3140830.377838791674208.671691033140830.37783879 1674208.7665071
3140830.37783879 1674210.82949513140830.377838791674213.82456785
3140830.377838791674213.895433863140830.377838791674218.06274836
3140830.377838791674218.093916273140830.377838791674220.00303319
3140830.377838791674221.986625033140830.377838791674222.16214961
3140830.377838791674223.804534783140830.377838791674224.21004577
3140830.377838791674226.052889853140830.37783879 1674228.5184361
3140830.377838791674228.948553353140830.377838791674230.83962569
3140830.377838791674231.205438613140830.377838791674233.18607768
3140830.377838791674273.819526613140830.37783879 1674278.1187306
3140830.377838791674280.373319273140830.377838791674283.32246035
3140830.377838791674283.997327773140830.377838791674286.48354328
3140830.377838791674287.739118193140830.377838791674291.02979402
3140830.37783879 1674294.18956463140830.377838791674297.39428261
3140830.377838791674300.171836113140830.377838791674303.32143611
3140830.465108961674303.467433183140830.89752279 1674304.1895446
3140831.463138461674305.134752693140831.983478641674306.00417352
3140832.724946961674307.243016183140833.165562881674307.97923519
 3140834.5510588 1674310.29419123140834.863394131674310.81584369
3140835.39915422 1674311.71118313140836.62946671 1674313.7666252
3140837.188192641674314.700350363140837.376512471674315.01498227
3140837.579596041674315.354220443140837.644884631674315.46314411
3140838.167193291674316.335845773140838.610761971674317.07698603
3140839.615681221674318.756116523140840.136021381674319.62520927
 3140841.65143831674322.157356443140842.166857211674323.01857519
3140842.547433881674323.654400693140844.097299551674326.24429053
3140844.443755551674326.822701443140845.939487461674329.32204027
3140846.056285131674329.517249853140846.435549471674330.15045069
3140846.838107721674330.823349613140847.154380051674331.35189186
3140848.686529221674333.911598033140848.978523371674334.39945795
3140849.274126471674334.893223363140850.711459551674337.29479335
3140850.951616541674337.696367353140851.124844551674337.98540877
3140851.531667871674338.665197453140851.952926871674339.36926427
3140853.347609131674341.699640183140853.698002131674342.28494085
3140855.285269291674344.936510353140855.521489291674345.33185077
3140855.787236791674345.775419443140855.844323291674345.87089169
 3140866.72028581674364.042771353140866.932227631674364.39677328
3140868.080847381674366.316060773140873.769812381674375.82096303
 3140874.72814381674377.422337773140880.056217131674386.32422286
3140880.069012371674386.345548273140880.084760381674386.37179494
 3140881.09820981674388.065689193140882.074913871674389.69691953
3140882.085084471674389.713979863140882.857392621674391.00498778
3140884.170710221674393.198881033140884.235342641674393.30714853
3140885.097873721674394.748090523140885.783567881674395.89342944
3140887.456136721674398.688371363140888.144455551674400.33928668
3140888.256003891674400.60700269 3140888.72221031674401.72543877
3140888.747472721674401.786134183140890.318007631674405.55417128
3140890.330474791674405.584026863140891.254357461674407.79990169
3140892.864262391674411.662098693140894.115244141674414.66340503
 3140894.82652881674416.370094523140897.533872471674422.86516027
3140897.830131711674423.576116863140898.14246705 1674424.3251311
3140898.718909461674425.707346193140898.809460461674425.92552161
3140899.779274791674428.251960533140899.900009471674428.54133002
 3140900.21628181674429.300514863140902.450201211674434.65942803
3140903.010239471674436.002601193140903.41935939 1674436.9845546
3140903.51712821 1674437.21913423140910.720525881674454.49993953
3140910.760880131674454.597052193140912.198213221674458.04520802
3140912.305824551674458.303081533140914.267434791674463.00878078
3140921.719847711674480.88735394 3140922.17096231674481.97002894
3140922.553507461674482.88767803 3140923.33237731674484.75644068
3140924.853699711674488.405711613140925.602713961674490.20262402
3140926.153893961674491.525127953140926.614851041674492.63076878
3140927.241490221674494.133718523140928.306120631674496.68850344
3140928.945883131674498.222949193140931.301193391674503.87352844
3140931.960968961674505.456202453140932.652240541674507.11466369
 3140934.02330081674510.404027193140934.519034711674511.59332928
3140934.544625211674511.654680863140934.510504541674513.84201244
3140934.488851041674515.23210153 3140934.28117431674528.50963402
 3140934.26148931674529.774067193140934.245741291674530.77734603
3140934.216213791674532.675636193140934.191607551674534.26060678
3140934.166345131674535.871824033140934.161751971674536.16447435
3140934.142723131674537.389865613140934.117788791674538.97614853
3140933.992789051674546.971211273140933.964901971674548.76845178
 3140933.91897031674551.696267443140933.89600447 1674553.1752671
3140933.874679041674554.540749943140933.85072896 1674556.0610881
3140933.831043961674557.325849353140933.719167551674564.47970644
3140933.701451051674565.627341943140933.677829041674567.14111844
3140933.629928891674570.204432523140933.182095131674598.86677678
3140933.120087391674602.816243953140933.101386641674604.02883995
3140933.069890631674606.028835943140933.038722711674608.02883194
3140933.013788391674609.632175193140932.968840961674612.49732694
3140932.95309296 1674613.50782363140932.921596961674615.53275394
3140932.374353961674650.543838773140934.599087041674661.88994469
3140934.628614541674662.04086302 3140934.93274781674663.59138486
3140935.526250541674666.617953613140935.815948131674668.09596902
3140935.919294391674668.621886613140936.243112621674670.27411428
 3140938.34022131674680.969302863140938.488843051674681.72815961
3140941.032801211674694.701558863140941.411737461674696.63462585
3140953.480939051674758.186668113140953.649573881674759.04624644
3140953.664993791674759.125970693140953.86479655 1674760.1453256
3140954.075754141674761.220782773140954.075754141674761.49473235
3140954.075754141674762.072815193140954.075754141674762.64433636
3140954.075754141674763.110542773140954.075754141674764.73127444
3140954.075754141674766.102990853140954.075754141674767.37792268
3140954.075754141674768.399574193140954.075754141674768.57542686
3140954.075754141674769.614794853140954.07575414 1674771.3362481
3140954.075754141674772.415970363140954.075754141674773.45763494
3140954.075754141674775.351988113140954.075754141674776.34870528
3140954.075754141674777.601983613140954.075754141674778.91300461
3140954.07575414 1674780.12363213140954.075754141674781.41070302
3140954.075754141674782.279467693140954.075754141674784.08130136
3140954.075754141674785.561941443140954.075754141674787.34638669
3140954.07575414 1674787.45038913140954.075754141674789.26501803
3140954.075754141674791.079975023140954.075754141674792.42610094
3140954.07575414 1674794.24958813140954.075754141674796.11736652
3140954.075754141674797.437573853140954.075754141674799.15771477
3140954.075754141674800.812895193140954.075754141674817.84534144
3140954.07575414 1674818.54087813140954.075754141674820.34041519
3140954.075754141674821.352224193140954.075754141674822.30268161
3140954.075754141674823.153073613140954.075754141674824.76232235
3140954.075754141674826.580232113140954.07575414 1674827.7081826
3140954.075754141674829.182261023140954.075754141674829.30397993
3140954.075754141674830.798071443140954.075754141674832.08448619
3140954.075754141674833.506071273140954.075754141674837.20422661
3140954.075754141674839.527384683140954.075754141674840.86957361
3140954.075754141674841.986369273140954.075754141674843.39253443
3140954.07575414 1674844.63367373140954.075754141674845.72159803
3140954.07575414 1674847.29278913140954.075754141674848.95354694
3140954.075754141674849.075922033140954.07575414 1674849.2416041
3140954.075754141674849.328874283140954.075754141674852.39612536
3140954.075754141674852.681885943140954.075754141674857.69106227
3140954.075754141674858.243554613140954.075754141674858.78226744
3140954.075754141674861.998140283140954.07575414 1674863.1805526
3140954.075754141674868.533888353140954.075754141674885.92394544
3140954.075754141674886.028932113140954.075754141674888.49874344
3140954.075754141674888.561079283140954.075754141674892.09059978
3140954.075754141674892.121767683140954.075754141674892.17360486
3140954.075754141674895.563689953140954.075754141674898.86683294
3140954.075754141674898.960992863140954.075754141674900.10961261
3140954.299178881674901.462628283140956.393662881674914.15190735
3140956.431064381674914.379269113140956.803110881674916.63451394
3140956.823452041674916.756889033140957.389723881674920.18700027
3140957.400222541674920.251960773140960.178760291674937.08526044
3140960.235518711674937.429747943140960.275544881674937.67252961
3140961.374624041674944.330652773140969.189240961674991.67931135
3140969.943176461674996.246559443140970.119685291674997.31545494
3140970.201706131674997.812173113140971.070142721675003.07430169
3140971.541926551675005.933219853140971.765023221675007.28393894
3140972.106886041675009.355457113140974.283390881675022.54276669
3140974.40314129 1675023.26881513140975.228270871675028.26814894
3140978.502870631675048.108332353140979.389023711675053.47675994
3140981.214479391675064.536777183140985.137043711675088.30379002
3140989.78467222 1675116.46154213140991.480863051675126.73940869
3140992.634404051675133.728567943140993.463470641675138.75053953
3140993.540242141675139.216089773140993.928364711675141.56811918
3140994.761040211675146.612072363140994.928034631675147.62388135
3140995.963137551675153.896506613140997.004802141675157.39289069
3140998.280718211675161.674706283140998.409654961675162.10777627
3140998.500862141675162.413878023140998.532030051675162.51853661
3140999.117002641675164.482115363140999.120611551675164.49359827
3140999.248235971675164.921747033140999.253485291675164.94011968
 3140999.34797331675165.257048193140999.861095641675166.97915761
3140999.888982711675167.072661363140999.977565211675167.36990486
 3141047.89708881675328.204228863141048.358702051675329.75409453
3141049.008635131675331.934864453141049.233044131675332.68814377
3141049.499775891675333.583155113141050.240916131675336.07166719
3141050.581466631675337.214053363141051.693997221675340.94764169
3141052.16545296 1675342.53031573141053.249768381675346.17040028
3141054.326865971675349.785222443141054.560789381675350.57065395
3141060.112287461675369.203162613141074.223479721675390.71033745
3141076.142439131675393.634872273141076.487910881675394.16177411
3141076.67524646 1675394.44753473141079.598797051675398.90323444
 3141079.91080431675399.378955273141093.390108051675419.92287745
3141093.610251961675420.258506693141094.227376711675421.19879353
3141094.682100211675421.892033613141094.809068471675422.08560278
3141095.864184471675423.694195363141095.97113962 1675423.8569247
3141098.677827131675427.98191644 3141098.8910813 1675428.3073751
3141100.082679961675430.123644443141100.332679471675430.50454919
3141100.491143721675430.746018533141102.059710131675433.13643369
3141102.827097041675434.306378863141105.540018131675438.44088502
3141106.451761711675439.830646023141106.798873891675440.35984445
3141107.692900971675441.722374533141107.980958131675442.16167811
3141109.701427131675444.783720113141110.057069471675445.32571377
3141111.044600291675446.83096011 3141111.26113531675447.16101193
3141112.223075631675448.626888283141112.460936041675448.98942035
3141113.59052697 1675450.71120173141113.814607871675451.05273645
 3141118.42253831675458.075688273141119.896616711675460.32240294
3141120.261117291675460.877848033141123.70435189 1675466.1261971
3141125.551132961675468.940495943141125.98420297 1675469.6009277
3141127.341155631675471.669165033141127.885773961675472.49921586
3141129.254865721675474.58582586 3141129.81424781675475.43818636
3141130.741739381675476.851897433141131.647905541675478.23312828
 3141132.58983281675479.66882095 3141133.97171981675481.77511594
3141135.296520291675483.794140773141136.888052551675486.21998894
 3141137.76501931675487.556272363141139.744017961675490.57299861
3141140.178400291675491.234742693141141.262387631675492.88697036
 3141142.90083581675495.38401261 3141145.28075231675499.01130193
3141147.049449551675501.707162693141148.686913461675504.20256452
 3141178.25903281675549.27465285 3141180.11926531675552.10994902
3141180.572020291675552.800236363141181.557582631675554.30220185
3141181.876807721675554.789077523141182.138946291675555.18835494
3141183.589074631675557.398652363141183.998850721675558.02299494
3141185.510658711675560.327124193141185.909279961675560.93473452
3141186.190447381675561.36353944 3141186.36137881675561.62403761
3141186.59530221 1675561.98033613141187.991952971675564.10894078
3141201.369222791675584.498007613141201.67926155 1675584.9704476
3141202.095599291675585.604960773141203.518168631675587.77326353
 3141204.19992581675588.812303443141204.885291871675589.85692078
3141205.342311961675590.553113613141206.592309461675592.45862161
3141207.324591461675593.574761113141207.885942041675594.43007436
3141208.102477041675594.760454273141208.936792971675596.03177719
3141209.751751961675597.273900693141210.16480888 1675597.9034926
3141210.820647461675598.90316252 3141211.41447831675599.80801636
3141212.921036961675602.104271613141213.842951131675603.50945252
3141215.051610131675605.351968533141215.959416721675606.73549594
3141217.120175541675608.504193193141218.22811297 1675610.1931662
3141219.609015721675612.297820783141220.505339381675613.66395977
3141221.709733291675615.499586033141222.683812711675616.98416311
3141223.120973091675647.219604033141223.120973091675635.72560896
3141224.398083661675670.207594173141164.37388717 1675795.3644294
3141140.108786471675868.159731523141143.940118161675948.61769702
3141203.964314641675988.20812449 3141233.33785761675990.76234561
3141297.193385781675998.425008993141352.109140011676000.97923012
3141412.133336491676002.256340683141455.555095651676020.13588857
 3141502.80818651676030.352773083141519.41062383 1676036.7383259
3141524.519066081676040.56965759 3141530.90461891676046.95521041
3141542.398613971676053.340763223141551.338387921676059.72631604
 3141559.00105131676066.111868863141567.940825241676068.66608999
3141574.912819251676076.254760693141581.612319851676080.72109443
3141589.651704821676086.545637883141601.71082166 1676089.6537619
3141610.643489131676098.586429373141628.50882407 1676109.7522637
3141644.140992141676127.617598643141655.306826481676138.78343298
3141666.472660811676154.415601053141679.871662021676172.28093599
3141691.03749635 1676185.67993723141702.915455111676201.37432973
3141711.509344941676210.749482283141720.884497491676229.49978737
3141727.134599191676242.781253483141731.040912751676251.37514331
3141736.509751731676261.531558573141738.853539871676267.00039755
3141745.10364157 1676276.3755501 3141747.44742971676283.40691451
3141751.353743261676290.438278923141752.135005981676294.34459248
3141756.822582251676299.813431463141763.853946661676310.75110943
3141772.447836491676331.063939953141775.572887341676342.00161792
3141774.010361921676352.158033183141774.010361921676363.09571115
3141774.010361921676390.439906073141772.447836491676420.12788913
3141770.885311071676449.034609483141768.541522931676471.69122814
3141766.978997511676483.410168823141766.197734791676493.56658408
3141764.635209371676506.066787473141764.635209371676513.87941459
3141763.853946661676523.254567143141761.510158521676545.12992308
3141749.290525291676634.426067593141732.049538791676777.46245347
3141728.856762391676799.811888333141698.844664141676852.17342143
3141687.989224351676871.330079883141595.880431941677033.74348207
Rch Text X Y=3141554.0216438,1673753.775871
Reverse River Text= 0 

Type RM Length L Ch R = 1 ,4402.769,242.15,243.8,246.03
XS GIS Cut Line=3
  3141445.170359  1672694.550386 3141889.4024106  1672694.550386
3141908.17239961  1672694.550386
Node Last Edited Time=May/17/2016 23:49:29
#Sta/Elev= 58 
       0 5255.94     .42    5256    2.03    5256    2.78    5256     4.3    5256
   12.41    5256   16.67    5256   22.32 5255.32   24.98    5255   27.78 5254.66
   30.45 5254.33   33.15    5254   40.21 5253.37   40.83 5253.31   44.28    5253
   50.03 5252.48      54 5252.12   55.33    5252   59.64    5252   63.52    5252
   66.51    5252   85.64    5252   96.33    5252  110.37    5252  113.91    5252
  128.27 5252.17  135.73 5252.26  152.13 5252.46  161.71 5252.57  170.58 5252.68
  177.89 5252.77  189.38  5252.9  192.33 5252.94  197.36    5253  198.54    5253
  203.01    5253  203.81    5253  210.85    5253  262.06 5253.74  266.74  5253.8
  281.69 5253.99  282.45    5254  282.69    5254   284.3    5254  303.48    5254
  303.74    5254  305.91    5254  358.62    5254  378.85    5254  379.13    5254
   382.4    5254  387.38  5253.4   432.8 5253.81  436.43 5253.76  436.44 5253.76
  436.97    5254  443.96  5254.7     463    5256
#Mann= 3 , 0 , 0 
       0    .048       0   50.03    .015       0  152.13    .055       0
Bank Sta=50.03,152.13
XS Rating Curve= 0 ,0
Exp/Cntr=0.3,0.1

Type RM Length L Ch R = 1 ,4158.965,129.42,142.46,155.22
XS GIS Cut Line=3
  3141465.026947 1672935.4311378 3141723.5710494 1672946.4327563
 3142032.6760742 1672957.1751888
Node Last Edited Time=May/17/2016 23:49:29
#Sta/Elev= 172 
       0 5254.43    1.39 5254.54    1.79 5254.57    4.28 5254.78    4.33 5254.78
    5.18 5254.85    6.89    5255    7.76    5255   11.06    5255   19.81 5254.11
   20.96    5254   21.93 5253.89   23.42 5253.72   28.08 5253.17   35.87 5252.26
   38.07    5252   85.83    5252   88.04    5252   98.94    5252    99.3    5252
  110.09    5252  122.56    5252  179.66    5252  179.91    5252  182.06    5252
  182.76    5252  185.32    5252  185.65    5252  186.69    5252  189.32    5252
  196.37    5252  196.43    5252  197.71    5252   197.8    5252  201.12    5252
  202.95    5252  203.42    5252  203.51    5252  203.52    5252  203.69    5252
  203.72    5252  203.91    5252  204.08    5252  204.18    5252  206.93    5252
  207.03    5252  209.64    5252  209.81    5252  210.59    5252  210.79    5252
  211.67    5252  212.07    5252  213.62    5252  213.89    5252  220.79    5252
   222.4    5252  224.82    5252  226.63    5252  228.63    5252  240.23    5252
   240.4    5252  246.29 5252.29   246.6  5252.3     249  5252.4  251.21 5252.49
  258.78 5252.69  283.57 5253.33  329.27 5252.91  330.96  5252.9  331.36  5252.9
  332.81  5252.9  337.12 5252.88  357.71 5252.16  358.24 5252.15  358.87 5252.15
  359.77 5252.15  360.75  5252.1  362.48    5252  363.39    5252  363.41    5252
  366.29    5252  366.95    5252  367.17    5252  368.53    5252  368.85    5252
  369.53    5252  369.62    5252  369.66    5252  370.26    5252  370.29    5252
  377.34    5252  377.73    5252  423.31    5252  423.93    5252  424.05    5252
  424.14    5252  425.67    5252  426.48    5252  431.98    5252  432.94    5252
   434.1    5252  435.01    5252  435.73    5252  436.76    5252  437.53    5252
  438.87    5252  440.33    5252  441.22    5252  442.35    5252     444    5252
  449.71    5252  451.39    5252  454.83    5252  455.35    5252  455.63    5252
  459.12    5252  459.16    5252  459.91    5252  461.15    5252  461.75    5252
   462.4    5252  463.24    5252  466.98    5252  476.66    5252  485.74    5252
  486.59    5252  488.41    5252  488.69    5252  489.13    5252   490.8    5252
  502.73    5252  503.47    5252  503.62    5252  504.15    5252  504.21    5252
  504.83    5252  504.88    5252  508.06    5252  508.12    5252  512.61    5252
  513.34    5252  515.47    5252  517.33    5252  517.45    5252  517.71    5252
  517.81    5252  522.12    5252  522.25    5252  522.39    5252   522.4    5252
  524.57    5252  524.89    5252  525.61    5252   525.7    5252  525.85    5252
  526.81    5252   527.4    5252  527.42    5252   527.8    5252  527.81    5252
   528.1    5252  528.12    5252  529.39 5252.17  531.23 5252.38  542.21    5254
  544.92 5254.94  548.23    5256  560.17 5256.68   561.6 5256.73  562.93 5256.77
  564.68 5256.81  568.07 5256.98
#Mann= 3 ,-1 , 0 
       0    .048       0   11.06    .015       0   98.94    .055       0
Bank Sta=38.07,185.65
XS Rating Curve= 0 ,0
Exp/Cntr=0.3,0.1

Type RM Length L Ch R = 1 ,4016.504,154.03,141.4,126.75
XS GIS Cut Line=4
3141346.964036691672999.62680123 3141500.4694614 1673071.7159703
 3141762.8751046 1673165.6403231 3141957.8845571 1673221.4381118
Node Last Edited Time=May/17/2016 23:49:29
#Sta/Elev= 175 
   74.43    5255   80.04 5255.52   81.04 5255.61   84.12 5255.63   84.58 5255.63
   84.95 5255.62   87.51 5255.61   92.57    5255   96.64 5254.51  105.56    5254
  108.43    5254  114.99 5253.13  115.99    5253  116.33 5252.94  116.66 5252.91
  119.05  5252.7  119.26 5252.68  120.84 5252.57   123.1 5252.36  123.51 5252.32
  125.64 5252.17  127.65    5252  128.22    5252  128.29    5252  128.31    5252
  129.82 5251.98  151.85 5251.75  155.68 5251.67  159.85 5251.62  160.89  5251.6
  163.06 5251.56  165.37 5251.53   166.8  5251.5  168.77 5251.47  170.88 5251.43
  172.41  5251.4  174.63 5251.36  176.26 5251.34  177.85 5251.31  178.04 5251.31
  179.87 5251.29  181.15 5251.26  182.23 5251.24  190.05 5251.16  201.75    5251
  201.89    5251  201.95    5251  203.48 5250.97  207.52 5250.91  211.08 5250.85
  214.21  5250.8  217.54 5250.74  219.85  5250.7  221.66 5250.67  223.22 5250.65
  224.86 5250.62  226.41  5250.6  227.53 5250.58  233.89 5250.49  241.46 5250.43
  244.02 5250.43  244.61 5250.43  247.06  5250.4  248.29 5250.39  250.96 5250.39
  251.65 5250.39  252.84 5250.39  256.56 5250.41   281.1 5250.33   282.7 5250.31
   283.8 5250.29  284.49 5250.28  284.97 5250.27  285.55 5250.26  302.81 5250.18
  303.15 5250.18  303.53 5250.18  307.66 5250.23  307.82 5250.23   308.1 5250.24
  311.21 5250.28  311.78 5250.28  312.14 5250.29  312.88  5250.3  316.76 5250.35
  319.54 5250.38  324.59 5250.46  326.68 5250.49  338.34 5250.66  341.36  5250.7
  346.58 5250.77   348.7  5250.8  351.55 5250.84  354.05 5250.88   356.2 5250.91
  356.73 5250.91  359.66 5250.95  359.82 5250.96  360.09 5250.96  363.11    5251
  378.35 5251.22  404.44 5251.57  406.03  5251.6   410.3 5251.69  414.52 5251.77
  420.64 5251.88  427.37    5252  431.77    5252  437.14    5252  438.19    5252
  439.29    5252  439.31    5252  439.32    5252  439.49    5252  439.66    5252
  439.97    5252  440.78    5252  442.21    5252  445.25    5252  446.54    5252
  447.62    5252  455.18    5252   455.5    5252  457.26    5252  458.75    5252
  459.28    5252  460.31    5252  465.82    5252  470.16 5252.09  470.26 5252.09
  470.38 5252.09  474.19 5252.18  474.39 5252.18  478.17 5252.28  522.73 5253.08
  531.06 5253.22  532.86 5253.23  534.82 5253.23  535.54 5253.23  555.28 5253.46
  556.16 5253.46  660.33 5253.92  660.39 5253.92   660.5 5253.92  660.55 5253.92
   662.5 5253.94  666.84    5254  666.85    5254  666.88    5254  667.75    5254
   669.5    5254  672.69    5254  674.68    5254  674.88    5254  677.47    5254
  677.78    5254  677.87    5254  681.26    5254  684.15    5254  687.16    5254
  687.35    5254  690.07    5254  690.97    5254  692.91    5254  694.17    5254
  697.08    5254  699.62    5254  699.92    5254   700.6    5254  712.91  5254.2
  715.59 5254.22  721.96 5254.29  724.16 5254.33  725.04 5254.34  725.56 5254.34
#Mann= 3 , 0 , 0 
   74.43    .048       0  221.66    .048       0  338.34    .055       0
Bank Sta=221.66,338.34
XS Rating Curve= 0 ,0
Exp/Cntr=0.3,0.1

Type RM Length L Ch R = 1 ,3875.099,167.45,163.68,191.01
XS GIS Cut Line=5
  3141202.372616 1673044.53590653141233.24459208 1673062.4638497
 3141473.5344759 1673202.0047517 3141789.3701304   1673282.27362
 3141927.9682783 1673321.1600252
Node Last Edited Time=May/17/2016 23:49:29
#Sta/Elev= 171 
       0 5251.92     .74    5252   68.92    5252  101.76 5252.14  105.34 5252.04
  105.45 5252.03  106.64    5252  107.76    5252  108.09    5252  108.23    5252
  109.17    5252  109.49    5252   114.8    5252  115.35    5252  116.64    5252