Geom Title=Reviewed_XS_change_20160216
Program Version=4.10
Viewing Rectangle= 3135438.52763188 , 3161489.88926921 , 1656928.07842051 , 1629673.97788945 

Junct Name=SP_Conf         
Junct Desc=, 0 , 0 ,-1 ,0
Junct X Y & Text X Y=3136660,1654925,3136660,1654925
Up River,Reach=BDC             ,Middle          
Up River,Reach=South Platte    ,Upper           
Dn River,Reach=South Platte    ,Lower           
Junc L&A=238.2189,
Junc L&A=478.3007,

Junct Name=Filmore_conf    
Junct Desc=, 0 , 0 ,-1 ,0
Junct X Y & Text X Y=3153703,1638253,3153703,1638253
Up River,Reach=BDC             ,Middle Upper    
Up River,Reach=FilmoreTrib     ,FilmoreTrib     
Dn River,Reach=BDC             ,Middle          
Junc L&A=252.94,
Junc L&A=126.705,

Junct Name=Otero_Conf      
Junct Desc=, 0 , 0 ,-1 ,0
Junct X Y & Text X Y=3155502.75,1637393.625,3155502.75,1637393.625
Up River,Reach=BDC             ,Upper Reach     
Up River,Reach=Otero           ,Otero           
Dn River,Reach=BDC             ,Middle Upper    
Junc L&A=742.229,
Junc L&A=416.956,

River Reach=FilmoreTrib     ,FilmoreTrib     
Reach XY= 267 
3151926.951525051631441.348134223151895.186168641631458.27198489
3151731.604802891631478.370697983151733.438788731631666.48219839
3151728.463404971631717.284262153151700.372253811631852.76889931
3151675.062593131631971.342152983151660.503239051632037.94142923
3151654.669589311632082.25334847 3151651.00424231632110.09712481
3151647.116454811632139.62921798 3151643.26803731632170.77088797
3151641.653539231632192.116973893151626.749697641632223.42891914
3151603.749087471632279.04954281 3151575.58903881632348.80038756
3151549.752804381632411.654264483151544.644546881632423.60109098
3151468.385513051632562.485655733151458.717553391632593.56367756
3151455.249384481632622.724052313151454.583047231632687.57628481
3151467.43079056 1632845.84007593151471.327764391632887.83933572
3151472.031831221632895.428887473151489.583961471632956.38644272
3151499.237157391632995.29679798 3151502.69154681633009.35155989
3151506.564242471633043.883314983151502.332623631633086.79300606
3151495.949106221633133.302427473151492.364467731633159.41982931
3151493.978309631633175.556279973151503.337542891633184.91518514
3151585.154964551633261.74344356 3151703.31516131633372.69794606
3151734.881699221633400.876039313151753.927264811633417.35500897
3151772.723158971633430.090547813151860.302052051633479.73546164
3151930.096531881633521.74784482 3151957.09418131633539.26880714
3151985.19779964 1633550.71825933152011.838166311633557.60702506
3152056.228497481633559.174607233152180.744980721633562.18214715
3152215.912889391633559.875065153152256.277638051633583.83335055
3152291.954732061633612.999958893152331.016989891633630.96875498
3152326.590161471633663.520855233152345.340123971633683.57298048
 3152371.90240681633712.739588813152393.777363051633743.46885806
3152384.142211721633769.770970813152377.892224221633780.96878307
3152385.032629891633788.736155973152388.905325551633806.48612048
3152398.910226811633826.818100813152408.591965971633834.24065815
3152418.596539141633843.922725393152422.79206881 1633861.0270219
3152423.760242721633880.390828313152429.89212023 1633890.7179074
3152438.283179551633895.236271053152457.646657881633894.59060305
3152474.751282471633907.499697983152478.239464481633918.69783831
3152486.074094471633937.120373643152499.601626471633963.00877331
3152504.442496061633972.368006563152513.15638939 1633973.6586864
3152529.152420391633973.803699233152538.328911221633974.30402631
 3152549.62449231633982.695085643152554.333800461633989.75871982
3152561.888247311634001.090390063152558.015551641634010.44962332
3152558.100525221634050.500068143152573.725493971634071.33335981
3152579.454485131634083.572836643152575.548324971634095.03114706
3152569.811459811634111.569499813152563.743558561634134.08651514
3152563.899070051634150.799408233152568.948600631634179.90171222
3152571.853122381634207.010909973152583.471209391634227.98790215
3152591.216928811634250.901570233152593.798616561634266.06984697
3152597.994146231634280.269949813152616.066944721634297.05174039
3152626.394351881634305.44247164 3152633.81723731634317.70622665
3152633.171897381634328.356139723152610.024305881634345.03688064
3152588.460700721634358.774385973152582.503363551634362.56538889
 3152573.78979831634378.056171573152570.885276561634392.25627439
3152572.821624381634410.006238893152579.844576221634423.90877014
3152588.635569141634441.310966313152596.38096046 1634458.7380968
3152597.671968391634471.647191733152591.217584971634498.11072148
3152579.276663971634520.379049643152583.47219364 1634534.9016584
3152581.911173141634559.876674063152579.809143221634593.51276164
3152578.960719721634617.684629313152578.631324051634633.97921614
3152570.435474311634660.248520553152563.463375391634689.81112547
3152568.627078971634701.106378483152570.886260811634727.24740231
3152570.886260811634778.883781973152571.209094811634804.70197181
 3152568.66382431634816.841711313152567.013893221634824.71111815
3152560.559181721634841.49290873 3152560.23667581634854.07916965
3152550.784266891634874.045008973152535.463103311634906.86121631
 3152508.36079531634957.791560653152509.662958061634995.29181373
3152508.167226141635016.35706031 3152507.30961631635024.98171498
3152502.432657551635043.914747983152508.026806471635061.41405681
3152523.087471891635072.314953643152524.235107391635093.54325764
3152528.968365641635112.207590393152524.521852231635133.00544906
3152525.23904239 1635155.95520633152527.390940961635191.29863957
3152527.390940961635205.009570143152526.001836141635222.63223831
3152525.095998051635234.126965973152529.542511481635268.83785456
3152533.846964811635299.743632643152538.283307641635332.12676997
3152532.058910641635369.510553483152537.527403641635412.47929956
3152546.466362131635428.709582063152552.205851971635454.37915014
3152565.760286811635483.908946723152586.398696971635498.65727681
3152591.901310641635503.272425063152601.099126891635523.60407731
3152605.456073551635541.999709813152617.074488641635560.87926523
3152639.538682551635614.507110733152673.181003721635694.82059839
3152694.412588551635745.505536393152700.82300881 1635760.8086554
 3152694.52971431635807.765582473152693.039231721635824.16253132
3152695.767244641635831.662188233152708.61761263 1635843.3596714
3152716.690431131635855.582744063152718.734718381635866.82451947
3152725.027684811635875.538084733152742.455143391635870.21329223
 3152751.85046581635893.208324983152741.260263891635940.25711539
3152747.944305641635958.833193733152748.464973881635970.81250048
3152754.975459561635979.145817153152770.339930131636004.14576714
 3152778.6732468 1636033.05220543152781.017074141636066.12497389
3152783.881569711636078.885447063152788.569224391636098.93757232
3152797.163039221636123.677024143152816.260113881636134.61466631
3152820.166274061636146.333474893152817.562276631636164.82293923
3152816.781110231636183.312403563152821.468436811636197.89570773
 3152823.29126781636214.041672813152821.207938641636227.84381056
3152826.156091471636245.812606653152836.572737311636260.91657905
3152844.906053981636283.573029823152852.197706061636295.03134023
3152856.624862551636303.885325153152868.08317298 1636325.7602814
3152870.947668551636337.739588143152874.593658641636351.02072956
 3152882.1454808 1636372.8960139 3152886.5726373 1636384.6144944
3152900.895443311636417.166594643152906.10376622 1636437.9998863
3152912.874750051636469.250151893152920.166402131636484.87512064
3152962.093483641636563.781130813152975.635123221636575.76043756
3152977.631838381636599.198054733152993.864417461636615.86468805
3153005.322727891636634.614650563153009.489386221636649.71862298
3153021.728863061636672.895741983153027.458182311636698.67718647
3153032.145508891636713.260490643153044.124815641636714.30215523
3153120.339886311636887.479302323153127.110870141636916.64591065
3153152.45793231 1636951.0208419 3153178.23937681636968.20847157
3153208.708147881636971.333465313153217.562132811636969.77080439
3153231.624768721636959.614656733153257.145715061636952.84367289
3153281.624668721636948.416844473153303.499624971636952.32300465
3153321.468421061636968.468641643153351.590079981637021.59386347
3153396.468599141637067.42710514 3153409.2290723 1637085.6563994
3153417.562388971637106.749861153153420.426884551637117.68750331
3153416.520724391637154.406261893153404.541417641637184.09386656
3153395.426934561637205.708324643153362.614336131637233.31260015
3153338.395552561637243.468747813153316.781094481637248.67707072
3153301.676793981637286.176995723153317.562260881637355.70835273
3153322.249587481637382.531133733153325.635079381637424.45821522
3153332.145565051637471.072951393153344.645540061637516.12502664
3153356.103850471637548.416628733153364.176668971637562.21876648
 3153386.05195331637600.239687823153411.051903311637648.15625864
3153423.812376471637672.375042233153432.405863231637688.52100731
3153434.48919238 1637701.28115243153436.833019721637722.89593856
3153440.999678061637743.20823389 3153456.62464681637780.96865706
3153470.166286391637815.083418223153473.291280141637824.71889764
3153472.249615551637844.250026553153473.291280141637853.10433955
3153482.666261391637887.218772653153484.489420471637908.57306065
3153481.88509497 1637921.59370393153486.312251461637940.60416456
3153507.406041311637973.156264813153528.499831141637997.63554657
3153539.437145221638009.875023393153550.374787391638034.35430515
 3153569.90591631638073.677061143153579.020727471638078.10421765
3153587.614214231638086.177036143153593.864201721638101.54183482
3153600.374687391638124.197957473153619.906144381638148.41674106
3153638.13511056 1638168.46886633153653.239411061638183.05217047
3153672.249871721638200.499970233153684.228850391638217.42710173
3153702.911640621638252.96102605
Rch Text X Y=3152370.7630554,1633144.4173167
Reverse River Text= 0 

Type RM Length L Ch R = 1 ,7958    ,246.03,246.5902,247.23
XS GIS Cut Line=2
3151641.888774981631669.714147313151839.288642631631665.99269806
Node Last Edited Time=Feb/15/2016 09:09:52
#Sta/Elev= 88 
       0 5712.71     .25 5712.74      .8 5712.78    5.25  5713.1    9.53 5713.14
   10.25 5713.13      11 5713.07   11.01 5713.06   15.25 5712.85   19.34 5712.55
   20.25 5712.45   24.25 5712.23   25.25 5712.17   26.29 5712.07   30.25 5711.75
   34.07 5711.32   35.25 5711.18   36.48 5710.96   40.25 5710.36   43.89 5709.49
   45.25 5709.13   48.79 5707.96   50.26 5707.44   51.77 5706.94   55.26 5705.74
   58.61  5704.8   60.26 5704.29   61.97 5703.73   65.26 5702.74   68.43 5701.58
   70.26 5700.87   72.16 5700.24   75.26 5698.82   77.26 5698.38   80.26 5697.33
   83.15 5696.58   85.26 5696.52   86.95  5696.7   88.06 5696.83   89.57 5696.88
   90.26 5696.91   92.55 5696.89   93.64 5696.93   93.69 5696.93   95.26 5696.99
   97.88 5697.27  100.26 5697.35  102.74 5697.85  105.27 5698.55  107.84 5699.14
  110.27 5699.74  112.94 5700.39  115.27 5701.07  117.51  5701.6  120.27 5702.33
  123.13 5702.94  125.27 5703.48  127.33  5703.9  130.27 5704.45  133.32 5705.04
  135.27 5705.48  138.42 5706.08  140.27 5706.46  143.52 5707.13  145.27 5707.48
  146.96 5707.89  150.27 5708.73   152.9 5709.36  153.71 5709.55  155.27 5709.88
  156.78 5710.14  160.27 5710.81  163.91 5711.39  165.28  5711.6   166.6 5711.76
  170.28 5712.27   171.5  5712.4  175.28 5712.84  176.41 5712.93  180.28 5713.29
  181.32 5713.36  185.28 5713.63  186.23 5713.67  190.28 5713.88  194.49 5714.02
  195.28 5714.05  196.05 5714.07  197.43  5714.1
#Mann= 5 ,-1 , 0 
       0      .1       0   11.01     .03       0   86.95    .035       0
   93.69     .03       0   152.9      .1       0
#Block Obstruct= 2 ,-1 
       0    9.25    5720  151.13  197.43    5725
Bank Sta=75.26,105.27
XS Rating Curve= 0 ,0
Exp/Cntr=0.3,0.1

Type RM Length L Ch R = 1 ,7711    ,10.87,10.8539,10.89
XS GIS Cut Line=2
3151607.36226922 1631895.00930043151793.431778971631929.94262947
Node Last Edited Time=Feb/15/2016 09:09:47
#Sta/Elev= 89 
       0 5708.25    1.33 5708.24    4.86 5708.24    8.58 5708.14    9.94 5708.02
   12.87  5708.1   15.03 5707.85    18.2 5707.77   20.12 5707.71   24.46 5707.44
   25.21 5707.39   28.43  5706.9   30.29 5706.62   34.28 5705.72   35.38 5705.47
   36.99 5705.03   40.47 5704.08   42.85 5703.47   45.56  5702.8   47.13 5702.35
   50.64 5701.38   55.53 5699.83    55.7 5699.78   55.73 5699.77   59.98 5698.39
   60.82 5698.11   62.04 5697.64    65.9 5696.19    68.3 5695.41   70.99 5694.64
   71.02 5694.64   72.83 5694.12   76.08 5693.29   80.76 5692.59   80.83 5692.58
   81.17 5692.51    81.4 5692.52   82.62 5692.51   85.65  5692.5   85.68  5692.5
   86.25 5692.51   88.22 5693.03   89.96 5693.48   91.34 5693.89   93.36 5694.44
   96.43 5695.15   99.62 5696.04  101.52 5696.56  105.88 5697.92   106.6 5698.17
   107.1 5698.32  109.72 5699.29  111.69    5700  115.66 5701.21  116.78 5701.58
  118.41 5702.11  121.87 5703.27  124.67 5703.79  126.09 5704.12  126.95 5704.32
  130.94 5704.09  132.04 5704.05   132.8 5704.05  136.82 5704.08  137.08 5704.08
  137.13 5704.08   137.2 5704.08  142.22  5704.1  145.64 5704.12   147.3 5704.13
  149.73 5704.13  152.39 5704.16  155.99 5704.25  157.48 5704.26  162.25 5704.31
  162.56 5704.31  162.78 5704.32  163.92 5704.31  167.65 5704.31  171.34 5704.49
  172.74 5704.58  174.78 5705.03  177.83 5705.64  179.91 5706.19  182.91 5707.06
  184.19 5707.41  186.61 5708.08     188 5708.46  189.32 5708.65
#Mann= 5 ,-1 , 0 
       0     .03       0   76.08    .035       0   88.22     .03       0
  126.09     .02       0  186.61      .1       0
Bank Sta=68.3,96.43
XS Rating Curve= 0 ,0
Exp/Cntr=0.3,0.1

Type RM Length L Ch R = 1 ,7701    ,194.46,194.0409,193.96
XS GIS Cut Line=2
3151604.845870051631905.577192653151790.915707891631940.51019365
Node Last Edited Time=Feb/15/2016 09:09:38
#Sta/Elev= 91 
       0 5708.71    1.69  5708.9    2.33 5708.94    3.27 5708.97    7.42 5708.97
    9.53 5708.78    12.5  5708.5    15.8 5707.95   17.59  5707.6   22.06 5707.36
   22.68 5707.32    23.1 5707.29   25.35 5707.09   27.38 5706.91   27.77 5706.88
   31.67 5706.15   32.85  5705.9   34.59 5705.39   37.94 5704.52   40.23 5703.96
   43.03  5703.4   47.11 5702.45   48.12 5702.21   52.45 5700.94   53.08 5700.75
    53.2 5700.71   53.38 5700.66   58.29 5699.19   61.65 5697.96   63.38 5697.25
   65.93 5696.11   68.46  5695.1   70.91 5694.22   72.17 5693.77   73.55  5693.3
    74.5 5693.05   78.64 5691.43   78.78 5691.41   79.55 5691.25   81.11 5690.98
   83.73 5690.52   84.69 5690.71   86.14 5690.96   87.86 5691.26   88.81 5691.42
   90.96  5692.1    93.9 5693.03   95.92 5693.64   98.99 5694.96  103.48 5696.52
  104.08 5696.72  106.64 5697.56  109.16 5698.39  113.05 5699.77  114.25 5700.19
  117.33 5701.28  119.34 5701.92  122.27 5702.67  124.43  5703.3   125.9 5703.46
  126.28 5703.47  129.51 5703.56  130.18 5703.52  133.74 5703.41   134.6 5703.38
   134.8 5703.38  139.69 5703.47  143.03  5703.5  144.78 5703.52  147.31 5703.54
  149.86 5703.52  153.59 5703.54  154.95 5703.54  155.88 5703.56  160.04 5703.56
  160.84 5703.57  164.45 5703.62  165.12 5703.63  166.12 5703.64  170.21 5703.67
  173.01 5703.87   175.3 5704.21   177.3 5704.79  180.39 5705.78   184.9 5707.29
  185.47 5707.47  185.86 5707.58  187.58    5708  187.72 5708.04  187.94 5708.09
  189.32 5708.43
#Mann= 6 ,-1 , 0 
       0     .03       0   78.78    .035       0   87.86     .03       0
  126.28     .02       0  187.58     .03       0  187.72      .1       0
Bank Sta=72.17,95.92
XS Rating Curve= 0 ,0
Exp/Cntr=0.3,0.1

Type RM Length L Ch R = 1 ,7507    ,16.79,16.79739,16.82
XS GIS Cut Line=2
3151567.997846631632098.602397143151768.935764971632129.84511681
Node Last Edited Time=Feb/15/2016 09:09:32
#Sta/Elev= 94 
       0 5702.66     .69 5702.64    4.19 5702.36    8.97 5701.91    9.25  5701.9
   10.76 5701.83   13.83  5701.7   14.31 5701.69   14.96 5701.68   19.37 5701.59
   20.95 5701.39   24.43 5701.07   26.94  5700.6   29.49 5700.24   31.35 5699.98
   34.55  5699.6   35.73 5699.45   39.61  5698.9    40.1 5698.82    43.3 5698.37
   44.67 5698.18   44.92 5698.12   49.73 5697.19   53.24 5696.26   54.79 5695.84
    56.9 5695.28   59.85 5694.55      62 5693.97   64.91 5693.21   68.89 5692.04
   69.92 5691.69   69.97 5691.67   74.88 5690.13   75.03 5690.09   75.84 5689.87
   80.09 5688.69   80.87 5688.67    81.5 5688.64   83.67  5688.5   85.37 5688.55
   86.86 5688.92   88.44 5689.27   90.21 5689.66   92.85 5690.59   95.27 5691.41
   97.03 5691.97  100.33 5693.24  101.41 5693.58  105.39 5694.85  108.39 5695.61
  110.17 5696.06  110.45 5696.13  110.83 5696.17  115.51 5696.63  116.82 5696.63
  120.57 5696.64  121.49 5696.56  122.81 5696.45  125.63  5696.2  127.69 5696.09
  130.69 5695.94  134.79 5695.92  135.75 5695.93  136.45 5695.94  140.81    5696
  140.83    5696  140.93    5696   145.2 5696.01  145.87 5696.02  146.78 5696.04
  150.93 5696.11  152.77 5696.12  155.99 5696.18  158.76  5696.2  161.05 5696.26
  162.72 5696.26  166.11  5696.3  170.75  5696.3  171.17  5696.3  173.47 5696.29
  176.23 5696.29  180.24 5696.25  181.29 5696.25  182.73 5696.23  186.35 5696.24
  188.72 5696.26  191.41 5696.27  193.38 5696.31  196.03  5696.4  196.47 5696.42
  198.61 5696.85   200.7 5697.27  201.53 5697.41  203.35 5697.92
#Mann= 6 ,-1 , 0 
       0     .03       0   75.84    .035       0   88.44     .03       0
  121.49     .02       0  196.03     .03       0  198.61      .1       0
#Block Obstruct= 1 ,-1 
  194.66  203.35    5708
Bank Sta=69.97,97.03
XS Rating Curve= 0 ,0
Exp/Cntr=0.3,0.1

Type RM Length L Ch R = 1 ,7490    ,49.5,47.99834,47.74
XS GIS Cut Line=2
3151565.328888711632115.181760313151766.266807051632146.42480806
Node Last Edited Time=Feb/15/2016 09:09:27
#Sta/Elev= 95 
       0 5703.21     .48 5703.17    1.65 5703.06    1.83 5703.04    2.08 5702.97
    6.89 5701.78    10.4 5701.38   11.95 5701.31   14.06 5701.22   17.01 5701.03
   19.16 5700.89   22.07  5700.8   26.04 5700.38   27.13 5700.27   32.04 5699.45
   32.19 5699.43    32.3 5699.42   33.02 5699.31   36.68 5698.72   37.25 5698.65
   38.03 5698.53   42.31 5697.94   45.44 5697.45   47.37 5697.08   50.01 5696.54
   52.43 5696.05    54.2  5695.6   57.49 5694.79   61.99 5693.58   62.55 5693.42
   62.95 5693.29   65.56 5692.41   67.33 5691.81   67.61 5691.72   70.24 5690.76
   71.71 5690.22   72.67 5689.85   76.09 5688.63   77.73 5688.09   79.97 5687.54
   82.07 5686.88   82.79 5686.66   84.85 5686.66      86 5686.63   87.63 5686.58
   87.85 5686.57   91.95 5687.99   92.91  5688.3   97.94 5690.31   97.97 5690.32
   97.99 5690.33   98.11 5690.37  103.03 5692.36  106.75 5693.95  108.09 5694.41
  111.13 5695.17  113.15 5695.67  115.92 5695.93  118.21 5696.18  119.88 5696.21
  123.27 5696.41  123.93  5696.4  124.26 5696.39  128.33 5696.39  130.65 5696.24
  133.39 5696.07   137.4  5696.1  138.45 5696.12  139.89 5696.15  143.51 5696.25
  146.16 5696.32  148.57 5696.43  151.87 5696.62  153.63 5696.69  157.86 5696.89
  158.69 5696.92   159.3 5696.94  163.19 5697.14  163.75 5697.17  163.85 5697.17
  168.81  5697.4  172.43 5697.58  173.87 5697.69  175.84 5697.79  178.93 5697.97
  181.83 5698.18  183.99 5698.34  185.57 5698.42  189.05 5698.66  189.95 5698.77
  194.11 5699.25  195.74  5699.5  199.17 5699.97   199.8 5700.06  203.35 5700.61
#Mann= 4 ,-1 , 0 
       0     .03       0   79.97    .035       0   87.63     .03       0
  123.93     .02       0
Bank Sta=71.71,97.94
XS Rating Curve= 0 ,0
Exp/Cntr=0.3,0.1

Type RM Length L Ch R = 1 ,7442    ,16.55,16.38264,16.45
XS GIS Cut Line=2
3151535.991020891632167.111118393151771.553213811632186.21836364
Node Last Edited Time=Feb/15/2016 09:09:21
#Sta/Elev= 107 
       0 5700.09    1.15 5700.07    3.98 5700.01    5.88 5699.94    6.16 5699.93
    8.74 5699.93   11.18 5699.98   13.26 5700.16    16.2 5700.27   19.65 5700.27
   21.21 5700.33   25.11 5700.07   26.23 5700.07   27.18 5699.95   31.25 5699.68
   36.03 5699.28   36.26 5699.25   36.46 5699.22   38.88 5698.97    41.1 5698.74
   41.28 5698.73   41.49 5698.71    46.3 5698.21   50.38 5697.82   51.31 5697.73
   55.02 5697.29   56.33 5697.16   59.66 5696.75   61.35 5696.54   63.33 5696.29
   66.36 5695.97   68.94 5695.55   71.38 5695.15   74.25 5694.45   76.39 5693.96
   78.22 5693.48   81.41 5692.64   82.86 5692.26   86.43 5691.23    87.5 5690.92
   88.02 5690.74   91.44 5689.55   96.08 5688.18   96.46 5688.05   96.78 5687.96
  100.73 5686.79  101.48 5686.57  101.54 5686.56  105.97 5686.12  106.49 5686.06
  109.54 5686.22   110.7 5686.27  111.51 5686.44  112.92 5686.72  115.34 5687.21
  116.53 5687.58  119.98  5688.8  121.54 5689.42  124.62 5690.73  126.56 5691.46
  128.84 5692.37  131.57 5693.47   133.9 5694.19  136.59 5694.92  139.76 5695.67
  141.61 5696.07  145.22 5696.88  146.62 5697.16  147.82 5697.29  151.64 5697.69
  156.13 5697.69  156.66 5697.69   157.1 5697.66  161.67  5697.5  161.74  5697.5
  162.57  5697.5  163.84 5697.49  166.69 5697.49  167.05 5697.49  171.71 5697.53
  175.66 5697.65  176.72 5697.68  177.97 5697.75  181.74 5697.98  183.43  5698.1
  186.76 5698.33  189.58 5698.51  191.77 5698.66  194.35  5698.8  196.79 5698.95
  198.86 5699.09   201.8 5699.25   203.5 5699.37  206.82 5699.53  210.73 5699.74
  211.84 5699.79  216.19 5700.05  216.85 5700.09  221.65 5700.32  221.87 5700.33
  224.42 5700.46   226.7 5700.58  226.89 5700.58   227.1 5700.59   231.9 5700.83
  232.56 5700.87  236.34 5701.06
#Mann= 5 ,-1 , 0 
       0      .1       0    5.88     .03       0  101.48    .035       0
  112.92     .03       0  163.84     .02       0
Bank Sta=91.44,121.54
XS Rating Curve= 0 ,0
Exp/Cntr=0.3,0.1

Type RM Length L Ch R = 1 ,7425    ,195.6,204.1575,205.93
XS GIS Cut Line=2
3151534.778096811632183.448356063151770.340289731632202.55527322
Node Last Edited Time=Feb/15/2016 09:09:16
#Sta/Elev= 101 
       0 5700.03    2.37 5700.03    3.86 5700.03    4.11 5700.03    7.38 5700.04
     8.5 5700.05    12.4 5700.12   13.14 5700.12   17.41 5700.32   22.34 5700.48
   22.43 5700.48   22.44 5700.48   27.45 5699.91    27.9 5699.84   32.46 5699.17
   33.36 5699.07   37.48 5698.45   40.98 5697.96    42.5 5697.76   44.28  5697.6
   47.51 5697.29   50.26 5697.03   52.53 5696.76   55.19 5696.47   57.55 5696.22
   60.65 5695.81   62.56 5695.59   64.18 5695.31   67.58 5694.63   68.82 5694.37
   72.59 5693.57   73.46 5693.37   77.61 5692.44   82.49 5691.01   82.63 5690.97
   84.19  5690.3   87.64 5688.78   92.03    5687   92.66 5686.79   93.41 5686.56
   97.68 5685.14  101.31 5684.22  102.69 5683.83  104.33 5683.89  104.73 5683.84
  107.71 5683.44  109.06 5683.85  109.79 5684.07  112.73 5685.07  115.25 5685.92
  117.74 5686.83   120.7 5688.16  122.76 5689.22  124.51 5690.02  127.78 5691.61
  131.62 5693.16  132.79 5693.62  133.79 5693.87  137.81 5694.95  142.54 5695.85
  142.82  5695.9  146.04 5696.49  147.84 5696.82  152.35 5697.55  152.86 5697.63
  153.46 5697.65  157.87 5697.39  158.92 5697.33  162.89 5697.25  164.38 5697.34
  167.91 5697.71  170.91 5697.81  171.04 5697.82  172.92    5698   175.3 5697.96
  177.94 5697.94  180.19 5697.99  182.96    5698  184.83 5698.11  187.97 5698.32
  191.67 5698.52  192.99 5698.61  197.13 5698.81  198.01 5698.85  198.75 5698.89
  203.02 5699.08  203.39  5699.1  207.88  5699.3  208.04 5699.31  212.67 5699.54
  213.05 5699.55  213.51 5699.57  218.07 5699.75  221.95 5699.94  223.09 5699.98
  224.43 5700.01   228.1 5700.25  231.23 5700.27  233.12 5700.41  235.35 5700.49
  236.34 5700.53
#Mann= 5 ,-1 , 0 
       0      .1       0    4.11     .03       0  104.33    .035       0
  109.79     .03       0  171.04     .02       0
#Block Obstruct= 1 ,-1 
       0    2.99    5710
Bank Sta=92.66,117.74
XS Rating Curve= 0 ,0
Exp/Cntr=0.3,0.1

Type RM Length L Ch R = 1 ,7221    ,200.93,198.9064,198.59
XS GIS Cut Line=3
3151454.397680131632298.505212563151503.364773811632346.26003832
3151709.310884221632464.58722948
Node Last Edited Time=Feb/15/2016 09:09:08
#Sta/Elev= 148 
       0  5695.7    2.51  5695.6    3.17 5695.58    3.82 5695.56    9.67 5695.31
   10.81 5695.26   13.78 5695.12   13.95 5695.11   16.83 5694.88   17.79 5694.84
   20.85  5694.8   23.99 5694.69   24.39 5694.71   24.78  5694.7   31.15 5694.66
   31.46 5694.64   31.76  5694.6      35 5694.24   38.31 5694.02   38.74 5693.99
   42.07 5693.77   45.47 5693.66    45.6 5693.66   45.73 5693.65   52.64 5693.52
   52.71 5693.52   55.74 5693.42    59.7  5693.3   59.75  5693.3    59.8  5693.3
   66.68 5692.77   66.82 5692.76   66.96 5692.75    68.4 5692.61   70.42 5692.42
   72.75 5692.21   74.09 5692.07   76.42 5691.77   77.75  5691.6   78.51  5691.5
   81.34 5691.12   84.28 5690.74   85.07 5690.63   86.45 5690.46   88.74 5690.15
   90.05 5689.93    92.4 5689.51   95.81 5689.02   96.06 5688.98   96.49 5688.92
  101.58 5688.14  103.38 5687.85  106.53 5687.37  107.05 5687.29  107.35 5687.25
  110.71 5686.74  113.11 5686.32  116.56 5685.75  118.03 5685.52  118.88 5685.37
  121.82 5684.89  122.01 5684.86  124.65 5684.42  125.36  5684.3   126.6 5684.12
  129.02 5683.69  130.41 5683.52  135.03 5683.01  135.56 5682.96  136.45 5680.61
  137.32 5680.61  139.02 5682.95  140.77 5683.01  141.95 5683.05  143.67 5683.36
  146.67 5684.23  147.33 5684.42  147.71 5684.54  149.11 5685.09  153.48 5686.75
  156.71 5687.82  158.32 5688.35  159.24 5688.64  162.67 5689.49  165.01 5690.13
  166.75 5690.48  170.78 5691.27  172.97 5691.56  176.54 5691.89  176.63  5691.9
  176.78 5691.91  180.29  5692.2  182.31 5692.29  186.82 5692.32  188.08 5692.32
  191.28 5692.38  193.84 5692.47  196.86 5692.56  199.61 5692.64  202.27 5692.71
  205.38 5692.85  206.89 5692.92  211.14 5693.13  213.25 5693.24  216.91  5693.4
  216.92  5693.4  216.93  5693.4  220.58 5693.37  222.68 5693.23  223.67 5693.14
  226.96 5692.86   227.9 5692.78  228.44 5692.75  230.44 5692.78  234.21 5692.79
  235.23 5692.82     237 5692.86  238.89 5692.91  239.98 5692.95  243.99 5693.06
  245.74 5693.11  246.22 5693.12  247.04 5693.11  249.88 5693.09  251.51 5693.09
  257.07 5692.98  257.28 5692.98  260.86 5692.92  263.04 5692.86  267.11 5692.95
  268.81 5693.05  269.15  5693.1   271.1 5693.39  274.58 5693.91  275.51 5694.06
  277.15 5694.39  280.34 5694.95  284.66 5695.56  286.11 5695.76   286.5 5695.81
  287.18 5695.94  290.16  5696.4  291.87 5696.58  297.22 5697.29  297.64 5697.35
  298.21 5697.41  303.41 5697.94  305.92    5698
#Mann= 6 ,-1 , 0 
       0      .1       0   13.95     .03       0  135.03    .035       0
  141.95     .03       0  223.67     .02       0  269.15      .1       0
#XS Ineff= 2 ,-1 
       0   132.3  5690.8  142.81  305.92 5690.47
Permanent Ineff=
       F       F
Bank Sta=121.82,149.11
XS Rating Curve= 0 ,0
Exp/Cntr=0.5,0.3

Type RM Length L Ch R = 2 ,7114    ,,,
Node Last Edited Time=May/18/2015 14:57:03
Bridge Culvert--1,0,-1,-1, 0 
Deck Dist Width WeirC Skew NumUp NumDn MinLoCord MaxHiCord MaxSubmerge Is_Ogee
88,40,2.6,0, 146, 146, , , 0.98, 0, 0,0,,
    -136 -135.89 -134.93 -131.83 -128.35 -128.28  -128.2 -121.77 -120.52 -117.64
 -115.18 -112.83 -110.55  -108.6 -107.01 -105.15 -102.02  -97.46  -96.37  -95.43
  -92.82  -89.77  -88.85  -83.32  -82.27  -82.18  -82.09  -75.68   -74.4  -71.55
   -69.1  -66.72  -64.45  -62.51  -60.91  -59.03  -57.36  -55.93  -53.81  -51.34
  -49.35  -43.66  -43.18  -42.76  -39.63  -36.18  -36.08  -35.97   -29.6  -28.99
  -28.29  -23.01   -20.6  -18.35  -16.43  -12.92   -9.85   -5.23   -4.17   -3.26
    -.62    2.46    3.32    6.47    7.44    9.77   10.01    10.3   13.56   16.38
   17.94   22.99   24.19   25.57   27.74   29.61   33.21   34.83   36.22   38.37
   40.85   42.84   45.46   48.49      49   49.45   55.68   56.07   56.13   59.64
   62.68   63.14   63.91   68.64   73.27   74.06   74.55   77.68   80.47   82.64
   84.93   86.38   88.56      92   92.29   92.79   98.21   99.43  101.37  103.06
  104.12  106.68  110.03  110.73  115.95  117.55   120.1  121.18  121.86  124.87
  127.77  129.47  133.69  135.68  138.83   139.6  142.93  145.51   148.2  150.18
  151.43  156.95  157.34  157.43  157.56  161.05  163.25  166.93  169.16  171.92
  175.08  175.55  176.29  179.17  180.99  184.27
 5692.32 5692.32  5692.3 5692.18 5692.04 5692.04 5692.04 5691.83 5691.79 5691.69
 5691.64  5691.6 5691.56 5691.52 5691.48 5691.45 5691.39  5691.3 5691.28 5691.28
 5691.29 5691.19 5691.17  5691.1 5691.09 5691.09 5691.09 5690.94  5690.9 5690.82
 5690.81 5690.78 5690.72 5690.69 5690.65 5690.62 5690.59 5690.58 5690.58 5690.57
 5690.55 5690.47 5690.46 5690.45 5690.41 5690.38 5690.38 5690.38 5690.39 5690.39
 5690.38  5690.3 5690.27 5690.25 5690.24 5690.23 5690.23 5690.22 5690.22 5690.22
 5690.18 5690.11 5690.09 5690.09 5690.08 5690.06 5690.05 5690.05 5689.98  5689.9
 5689.89  5689.9 5689.89 5689.92 5689.96    5690    5690 5689.99    5690 5690.01
 5690.01 5690.03  5690.1 5690.11 5690.12 5690.12 5690.24 5690.25 5690.25 5690.26
 5690.34 5690.34 5690.34 5690.27 5690.41 5690.45 5690.45 5690.45 5690.49 5690.49
 5690.48 5690.48 5690.44  5690.6 5690.61 5690.61 5690.67 5690.68 5690.73 5690.74
 5690.75 5690.75 5690.85 5690.86 5690.89  5690.9 5690.94 5690.96 5690.97 5690.99
    5691 5690.97  5690.8 5690.74 5690.57 5690.54 5690.47 5690.55 5690.57 5690.54
 5690.54 5690.51 5690.51 5690.51 5690.52 5690.58 5690.64 5690.76 5690.82 5690.88
 5690.98    5691 5691.02 5691.08 5691.15 5691.24
                                                                                
                                                                                
                                                                                
                                                                                
                                                                                
                                                                                
                                                                                
                                                                                
                                                                                
                                                                                