Geom Title=Reaches Combd with Splits 20140204
Program Version=4.10
Viewing Rectangle= 3074704.43398041 , 3129677.68468889 , 1820130.74990021 , 1749401.09427319 

Junct Name=Confluence      
Junct Desc=, 0 , 0 ,-1 ,0
Junct X Y & Text X Y=3121891.75,1784226.75,3121891.75,1784226.75
Up River,Reach=Coal Creek      ,Main            
Up River,Reach=Rock Creek      ,Main            
Dn River,Reach=Coal Creek      ,Lower           
Junc L&A=0,0
Junc L&A=0,0

River Reach=Coal Creek      ,Main            
Reach XY= 3350 
3075355.75727274 1761185.92200273075367.19622622 1761184.1483842
3075396.203386071761182.839659783075432.159022811761184.17692745
3075446.71345565 1761190.66215073075464.390257571761211.89603212
3075479.955843231761228.086616533075488.69106197 1761236.2959177
3075498.545372981761244.923197033075504.335715731761258.18859045
3075518.378010481761270.774851373075528.725758811761280.29615779
 3075549.54297441761294.139962123075570.360189971761307.98343837
3075584.765672981761314.059213623075619.207205151761327.70879261
3075645.490945231761333.581484293075648.15629423 1761336.2937492
3075650.41547607 1761344.42562273075654.313762231761345.82194537
3075685.122427641761352.055856783075728.460595561761352.42068546
3075751.160353321761354.782229293075769.081905391761368.02564111
3075780.769874141761380.100420123075784.560548981761401.02754362
3075792.285599141761413.503896623075802.760643811761428.03667594
3075814.162851971761450.284991043075825.565388231761472.53330612
 3075836.9675964 1761494.78162123075851.461333811761512.60343595
3075867.538073321761537.355683033075892.217813981761543.66702212
3075909.309971391761544.193267793075924.756134731761541.89077896
3075928.104881321761533.249063953075927.495958641761521.20184395
3075946.179976391761510.103769033075979.690408071761493.12742503
3076001.055194741761493.112333213076012.38161564 1761498.2146852
3076025.525290151761499.160549453076047.140732481761506.39675546
3076073.219420481761522.084060033076094.891293141761545.33138888
3076107.602225721761555.568245043076122.31348239 1761564.7460482
3076126.608749391761572.042293463076127.786240471761589.19416204
3076117.718675321761612.369640623076118.906993151761616.64653495
3076123.549044221761621.007418623076128.247525651761640.14419137
3076127.211438481761679.505005033076137.293767391761700.42523879
3076150.335407971761713.53183986 3076160.43545341761723.63188529
3076177.29139081 1761737.43861623076187.041043221761741.99602179
3076211.967502561761743.913668873076221.299504891761740.72108996
3076244.953657061761732.62891454 3076260.26202541761717.32054619
3076277.939811561761699.642760043076288.91223057 1761684.9446267
3076300.544097071761675.668398533076310.181544971761675.56734887
3076322.242544471761679.205464963076338.703469561761690.96233121
3076340.369476741761692.26613437 3076360.05677331761707.67358387
3076379.744726061761723.081361463076399.432350721761738.48913904
3076419.119975391761753.896588533076438.807600071761769.30436611
3076461.636950731761787.503476713076484.623125231761800.72031379
3076505.487584811761806.303635953076508.849454731761812.56149745
3076510.758243561761843.64640903 3076516.32253691761848.37999538
3076540.891385391761860.27367237 3076545.06460541761867.57516696
3076546.687633651761886.69717595 3076554.33820891761897.82280988
3076571.146574231761917.640355543076580.660662821761922.62262903
3076590.488399061761928.555031873076606.990990731761936.71183971
3076626.089705811761955.620594533076650.009277391761979.16385454
3076660.398364231761997.561127453076667.666394311762015.97447646
3076671.993157311762030.965260123076676.608633651762044.13222854
3076687.481643391762072.131844453076691.43537565 1762101.7784387
3076689.002965811762122.775772043076684.516426241762131.09563729
3076676.873396891762137.520493193076666.71724923 1762140.1248187
3076656.387545481762149.325915783076650.658226221762172.58997686
3076647.186120321762211.131566453076647.359676391762231.96485811
3076649.269449471762258.353584873076656.908213731762272.58977687
3076668.366852221762282.312198373076680.866827231762291.34006745
3076695.316929561762300.983748963076708.297218561762309.39547753
3076723.054078821762310.784254283076736.888040651762306.13564153
3076768.267242981762306.276717363076785.425017061762303.18125112
3076811.179230651762302.683876783076833.991849061762307.65926054
3076862.116792811762313.909248043076891.630513311762316.68712962
3076924.269555641762323.631669543076970.102797311762326.40922303
3077015.936038971762329.881657033077029.130566391762330.57588136
3077034.686001481762334.395427543077054.825068821762355.92327161
3077075.311248321762376.062010873077096.838764311762389.95109071
3077122.186154561762404.881507043077145.797327821762415.99270529
3077155.866861481762420.506475793077163.235941231762422.61408311
3077184.566607221762439.108800783077188.093831151762441.38799571
3077190.83037423 1762444.77184723077192.361539141762447.66094904
3077193.457009391762453.440793113077197.090204221762462.66059095
3077211.018325981762482.633976213077227.862124311762491.38330254
3077248.140627061762499.34818162 3077269.52378641762507.19363837
3077282.599547641762510.715612953077316.938061641762508.17296712
3077341.307763561762502.594238123077358.863174651762501.87770411
 3077383.84245541762500.858021133077407.770229061762497.01255637
3077432.453578651762493.045700793077448.392195061762491.35016611
3077465.267489391762491.59590054 3077484.84225341762493.68972836
3077504.502319071762501.726129623077523.570194321762508.73070878
3077554.608846141762522.298595043077570.433617651762531.70047912
3077585.569742231762544.849731033077599.403047891762558.36085887
3077619.085423231762573.774870043077624.463365231762580.01304653
3077640.786823391762598.948376123077641.060772991762599.70165545
3077649.604391071762623.196359113077658.148009151762646.69139087
3077660.927531141762651.94564545 3077666.72377941762677.05747187
3077675.857947481762696.022985123077688.153198481762717.27163029
 3077699.78079991762735.847708613077715.624600231762754.77450803
3077728.829626311762773.594680373077744.563846811762787.63959979
3077765.917150561762801.12284054 3077778.69205941762805.48700504
3077797.156917481762810.341326033077820.39899698 1762816.6825207
 3077844.35531391762824.111967793077864.679092141762830.16116829
3077893.097014311762837.381954373077904.673762811762839.64507321
 3077923.8413754 1762839.92263173077938.622513821762839.63949579
3077960.603769061762836.500066373077980.94657615 1762832.8143782
3077995.626992991762832.679207863078026.482574311762838.54894678
 3078048.88246391762850.378975613078060.036312981762857.46032628
3078065.83682631 1762860.57022823078076.513642221762862.58728454
3078081.137648731762865.865165113078081.47360606 1762867.2099787
3078082.230166231762873.345465123078085.172745651762877.37990586
 3078091.9532439 1762881.11152573078103.891212151762886.99471603
3078108.262922561762888.759804373078113.811139811762890.02062862
3078129.95218365 1762893.04654123078138.358990981762893.38282661
 3078146.65195341762889.751928373078151.023335731762888.07082936
3078156.235595641762888.911378883078168.257225141762893.87035845
3078175.487197561762893.618062363078182.128588481762892.86183028
3078201.545216311762890.05737396 3078225.95494441762886.43303737
3078273.807538971762880.875633793078289.275027721762883.77523428
3078315.859620231762894.164977283078324.136834651762899.33885145
3078328.923242391762900.66594854 3078332.78347091762902.45531504
3078334.909450891762904.915940033078335.359253141762908.13050054
 3078335.61023691762909.805037873078337.369091641762912.48449445
3078355.42154898 1762923.14096923078387.993662311762938.35189678
3078410.279378891762941.351234613078443.065730651762944.99361579
3078507.888435651762943.910940783078526.475012651762942.48902762
3078544.953650221762944.415204873078563.433928221762948.66880529
3078580.384681731762957.631385793078596.547707141762981.87018245
3078603.566065821763020.142087533078607.393814061763038.64008203
3078619.353763891763056.652513213078633.177555141763075.78862979
3078655.720817151763090.671802123078686.691227641763108.46179278
3078688.327379231763110.642890783078691.473370311763114.35777837
3078715.722993731763131.900722283078739.97983497 1763159.5735672
3078767.329845891763193.119759953078810.356334641763241.84636854
3078816.255929141763249.077653293078831.16337964 1763263.8509177
3078854.944171981763285.40500845 3078916.14418081763337.80188529
3078981.779548231763403.959561363079000.117438061763422.83091471
3079017.333282891763434.66422437 3079043.69510681763452.95158938
3079052.840757821763464.784570953079082.966681811763488.56372286
3079101.369532141763501.758250283079172.665977481763544.29294212
3079182.529146731763560.233198963079183.752897561763586.78826395
3079184.666281571763595.265937283079185.840163721763606.74294846
3079187.94449022 1763620.11004773079193.162327561763640.45613562
3079199.424454141763654.802563623079212.877511231763671.13914512
3079230.114353391763692.82479729 3079242.27377791763710.22961812
3079247.034267071763716.30375296 3079248.79738691763718.56359096
3079253.317719061763726.563574953079258.613312141763736.75318712
3079260.413833481763744.581255453079263.060809811763760.27840254
3079264.06474482 1763773.51131573079264.71139707 1763781.0585447
3079267.997807821763796.755691783079270.097213061763806.88559279
3079273.659869981763818.700529783079275.942017641763827.27925278
3079280.14082815 1763835.85764773079289.54304031 1763850.7336022
3079302.170311641763864.771303793079349.33294697 1763894.9480807
3079393.193751651763915.222974543079418.190092731763918.52382095
3079470.167350981763907.179355463079491.39073373 1763896.8063447
3079506.482567061763887.375917383079524.876231061763882.18924795
3079553.712787571763875.253894373079588.255041321763879.66005354
3079599.695307151763888.646584123079605.742211061763893.87557629
3079609.844236981763899.120972623079618.833064141763906.96413279
3079626.05385023 1763928.60155673079638.986239061763974.33538912
3079653.281157991764003.376341543079671.618063571764024.55116795
3079689.457922891764029.810343793079689.782397311764029.89006804
3079690.370978821764029.977010123079693.689541731764030.20863695
3079710.784979981764031.187965713079721.964091481764032.67319895
3079735.905664641764038.968133873079751.646774891764054.03076778
3079757.943022151764067.294848873079766.938410981764097.89780603
3079763.565714311764118.805572613079761.091965971764134.54274587
3079763.594257561764153.10274813 3079770.11524191764172.43702704
3079773.263529571764179.630910293079789.903588151764190.87202953
3079805.419633221764194.244070043079834.955007231764187.48784995
3079866.43657157 1764174.8983082 3079878.57959191764169.95212387
3079890.272809981764161.184424863079916.132666391764147.02106737
3079935.066355561764130.947608693079949.501694141764120.83870503
 3079961.91013391764117.692057793079967.981644061764112.52146445
3079989.344462231764090.489356283080006.883797231764079.02382803
 3080018.27813141764069.425422033080050.278723571764051.81423679
 3080066.52016091764040.853628783080072.920410561764040.05901095
3080092.859018981764046.038985863080119.098795891764055.57702453
3080139.207679551764064.282059623080159.639069141764088.47459653
3080192.451339481764100.453575213080215.491975811764092.96802586
3080239.263253731764082.658007123080309.830369821764092.54643878
3080342.14067264 1764100.90042473080354.117354741764098.39419612
3080371.386349071764093.103524283080380.673403981764098.32923561
3080387.131068231764097.57595629 3080395.13367691764091.71048245
3080409.060158221764081.685568123080414.631013231764077.50841112
3080431.621464821764076.673439043080431.642790231764076.68459387
3080443.912778811764067.670176213080471.777224391764062.46185328
3080492.871014221764066.107515293080513.964804071764076.78465928
3080520.214791571764095.534621793080523.339785311764117.14940795
3080525.162616311764144.49318528 3080528.80860641764152.56600378
3080529.105193731764153.222826613080529.503158811764153.33437495
3080534.238385561764161.966903613080542.037254481764168.92850387
3080551.507379891764176.447189613080556.712750061764183.52854028
3080565.239963981764203.184340863080571.635620471764218.34047854
3080582.958760561764224.579311213080596.743837981764225.20824695
3080619.009869561764219.524531293080646.827399221764220.44053996
3080656.165635141764221.309304623080684.016301231764223.28305395
 3080700.59763291764226.361131793080708.887970641764224.46677862
 3080722.86333641764219.493691443080739.444668051764216.65183362
3080757.064383481764222.128856783080795.674542471764251.02053128
3080810.509814651764259.266577783080815.179752811764260.88074778
3080851.172791061764283.107737453080890.345284891764308.11523336
3080925.269755721764320.147361533080935.180825141764327.22510329
3080943.676214981764342.559718283080960.266732981764379.00124645
3080975.369393071764400.942147453080999.730236721764433.36498287
3081033.711139891764477.246128713081071.82097182 1764508.0393742
3081110.049569891764524.081993033081132.703395981764525.02556071
3081182.344044731764533.280137383081219.39219898 1764540.3582072
3081226.213707641764543.272899543081234.963690151764543.59999862
3081255.013518811764540.027827283081318.938587811764522.29361078
 3081354.74986791764504.224749283081363.686857891764501.89634188
3081382.136952221764501.409466213081385.966012811764502.79397787
3081393.379055721764506.947840963081403.485334721764507.51706554
 3081518.49560341764503.401916283081536.538874391764502.15323111
3081549.327234641764502.711628963081568.42463739 1764507.7027607
3081607.487223311764512.042975113081639.822132391764514.64697254
3081655.44710115 1764524.62989223081664.778775391764527.88480695
3081677.365364391764521.80870362 3081679.48347041764519.93370737
3081683.224932731764518.987515033081686.844676151764520.69748537
3081689.735418391764525.063946463081692.122552721764531.32246412
3081694.726550151764535.046538043081708.511299481764542.85032821
3081713.025069981764544.655770783081720.386275721764545.46744895
3081734.817677321764544.81653161 3081777.00492891764532.39431237
3081798.643337061764518.248999453081855.770847481764484.72314787
3081873.902044821764479.755638123081888.208446651764478.97578403
3081900.015837731764473.042725043081902.431515311764461.76157962
3081911.354397731764456.974843793081929.735922651764467.86524194
3081968.693849981764479.495139963081999.761701231764487.57944137
3082015.568756221764496.682769613082037.080852311764512.71226512
3082076.991861731764546.395268623082094.46065882 1764558.9959652
3082127.060987311764591.319391373082178.308916321764650.48200271
3082217.715989721764695.814261123082225.838020731764716.11507353
 3082238.0374714 1764775.0821472 3082238.98825691764789.05324787
3082239.560762321764810.229058533082244.00924423 1764831.4540817
3082246.72839889 1764850.48357123082248.731675731764872.51764786
3082250.900306571764891.787622453082251.472811981764905.52315928
3082254.478055311764939.576240783082259.653569891764964.55978662
3082271.961616141764991.744443543082286.702400311765006.33857445
3082306.738121391765012.205032543082322.480543971765011.77557145
3082332.641284811765003.906164623082344.601890821764991.86485012
3082355.132381561764985.456726453082376.422037141764982.25233653
3082398.169368981764987.516433613082422.744122981765011.90680479
3082437.662072151765028.635773963082457.997989481765037.53962754
3082500.119624391765048.525169863082527.590041891765054.01826912
3082570.364890721765049.715784283082585.744453151765041.66199462
 3082594.53282141765029.580982033082599.292982471765007.24900571
3082606.616786731764995.534134123082622.362490151764987.84615737
3082641.769931641764985.283498453082660.811232151764987.48034444
3082677.655358571764991.507239283082687.542149811765002.85596986
3082697.394820391765019.634479613082702.883982641765044.99433704
3082703.15432331 1765069.81580973082705.623150391765090.38204153
3082710.971564891765101.076245873082724.531577141765126.07455546
3082741.00496939 1765157.01642273082750.491827061765163.29659387
3082756.567274231765167.908461293082761.980321141765175.35923378
3082762.424217891765178.695841283082763.503940151765183.73356088
3082766.743434981765188.052121793082781.501279471765199.02814971
3082792.533081561765207.011401443082810.710538641765212.94905362
3082837.526757991765212.76926395 3082861.82362541765206.83161178
3082893.954138561765187.72666311 3082905.65227791765170.63286528
3082921.31038307 1765154.61878973082931.748682391765150.48034653
3082936.428134981765150.120439113082945.426804651765151.38027912
 3082980.43362441765162.734259043083016.428631141765193.14299087
3083030.826568231765227.329930373083026.958137651765268.29113454
3083023.50342014 1765295.92165673083023.67763239 1765301.4039292
3083029.500783471765320.00559804 3083038.59098841765340.02721153
3083051.657891391765348.547207623083061.495142061765361.09606704
3083078.285790891765377.780744953083100.160747141765389.23905537
3083119.040958731765388.588138033083135.056674731765379.47365496
3083145.993988811765365.280769963083153.546139061765354.60362595
3083162.921120321765348.614136623083170.863689741765345.48914286
3083180.499169141765346.661056533083187.270152971765350.56721669
3083191.046064061765363.067191713083188.702236731765376.60883129
3083189.759649311765389.756114713083194.482736981765396.47591753
3083205.384946141765408.102206623083237.365525231765443.34491828
3083242.089597151765466.234636293083231.958055731765497.29756628
3083208.823915651765535.593421463083204.049646971765553.38833337
3083190.892521071765598.66612995 3083187.31313191765614.63099304
3083167.000836571765682.223049453083166.638632571765709.73119654
3083166.831873641765719.759063623083176.749176651765745.18256921
3083199.63561381 1765799.08009923083222.829793141765839.57444079
3083245.207701151765857.624929623083265.042635231765867.03173496
3083286.460243311765873.66426761 3083305.90344591765876.73414336
3083329.940471311765875.017283293083354.024412651765873.29681428
3083391.749074731765866.432654783083430.093486231765865.86014937
3083467.865392311765869.866374953083485.034649311765878.45100345
 3083506.2101319 1765894.47557773083529.674651891765901.34301804
 3083561.15096691765897.33712053 3083579.05447441765893.00281163
3083597.073795321765891.515609883083597.62825614 1765891.4736152
3083627.596043971765886.882417043083658.314158391765878.68361454
3083687.574270471765871.588156283083703.082441571765870.71315804
3083729.105027321765882.289906533083792.978587231765917.74226345
3083830.004431811765943.405926033083849.014892471765954.34324011
 3083868.54602141765959.551563043083890.681475821765959.29139295
3083911.514767481765951.478744543083935.733551061765923.35380079
3083953.702347141765914.499815873083971.237088981765915.21799028
3084022.847221991765929.232397963084066.174563141765956.94264437
3084095.175161321765972.850749033084100.352972481765977.09581928
3084101.438928311765978.048245213084102.254215391765978.78183953
3084103.042271551765979.516090043084103.725341071765980.14338537
3084104.246009311765980.647977533084105.128881561765981.52756895
3084108.101316561765984.487208713084113.292579141765989.63844512
3084118.512713061765994.818880953084125.890979141766002.20862995
3084132.071412981766008.340507453084134.851919231766011.20139413
3084137.253489231766013.53603512 3084138.38800141766014.51405154
3084160.629426731766026.077348623084222.376678561766052.89225562
3084297.461830231766079.702241363084330.007368821766093.61920829
3084342.481425231766103.190055283084356.695963731766129.14768054
3084357.606394981766157.518358713084371.779594971766204.21314721
3084375.251700891766216.582873123084375.902946311766224.82957579
3084376.788443221766234.60153787 3084383.02530741766242.28754611
3084401.736556071766252.72847012 3084436.35984641766263.96434003
3084458.117348811766267.009937613084459.176401811766266.70449203
3084482.522811821766271.373774043084500.436161821766274.95644404
3084509.308847471766281.568635543084510.369212811766285.27925804
3084522.616235551766300.120763783084532.155258481766306.16537112
 3084540.64671131766307.88157503 3084548.77694441766306.16537112
3084563.801848721766300.304162373084575.682730481766296.86486478
3084594.780133231766297.732973293084611.273210481766308.14961912
3084626.030070721766329.851019283084634.763649061766354.51041879
3084639.874531221766368.942148453084648.995575981766390.28068845
3084673.138572311766414.684839113084705.425253141766434.38033779
3084721.841886981766439.851127373084742.301163641766442.74974363
3084759.462218571766444.103415443084760.621665061766444.18379587
3084774.182661561766443.405254133084776.705622391766442.10965304
3084780.419525731766439.867203463084785.394909471766437.27534512
3084791.586498141766435.166097373084795.195414811766434.60573104
3084803.464427141766434.430534543084814.277069571766434.61196461
3084825.179934891766435.208420113084833.133331061766435.69890471
3084837.99257331 1766436.61032023084855.231383981766440.67396037
 3084864.60308441766442.888850963084871.085354891766443.23924395
3084885.168660061766443.50335103 3084904.62268941766443.41378428
 3084912.87070441766441.979732043084961.967390981766430.54569979
3085024.467594061766428.809482783085054.750341891766443.01778769
3085082.229945731766456.036134363085093.412994241766461.78021736
3085103.504509481766465.508556373085131.597957221766476.57579145
3085150.870228391766490.377601123085171.383638811766508.81752487
3085187.892135981766524.399186613085203.514151981766544.93359438
3085211.475422141766568.16976836 3085224.45078991766602.65854454
3085227.468500391766611.540088443085231.493754821766626.49215828
3085246.463213061766649.416981213085267.523210321766675.33720495
3085293.303670561766693.462496793085311.063477561766702.04646912
3085344.779945571766719.608113783085369.167363971766728.91977495
3085383.567269561766732.780659623085400.614151481766736.83741003
 3085418.01733191766738.935174873085434.907389981766738.68123837
3085491.498812231766740.038191043085520.530906391766740.59921354
3085557.185360641766746.972232283085592.152154221766757.95941503
3085612.964776651766764.498772043085630.77543657 1766772.1116177
3085670.73598656 1766791.98362523085692.95871115 1766804.2867502
3085716.070541561766822.133827373085730.429436731766835.79915437
3085740.50815673 1766843.39100273085744.926454981766845.87557779
 3085749.75879441766845.185618533085756.52420081 1766841.0445507
3085765.559615811766840.616401963085785.578276561766849.18561053
3085811.571990981766896.076920963085816.652033311766904.16384703
3085820.228141651766907.326570363085826.039809811766910.50766636
3085832.774376391766915.812773873085842.163793311766924.77174546
3085852.048944151766937.521063793085855.588307141766947.39374745
3085871.194575151767011.755167293085874.901260641767026.96806337
3085878.217855071767048.226551043085881.338911821767058.95356371
3085894.604633321767074.751432373085907.089844551767081.57786229
3085932.624898481767097.540100713085949.103211981767104.19986428
3085962.075298891767104.550585373085975.748827981767101.74612904
3085983.462067141767101.045343043085991.525699321767104.90097837
3085991.525699321767115.065984283085989.772750061767123.47836904
3085989.03817149 1767136.25262173085993.079501971767152.72502971
3086003.027316731767169.818827543086020.124723481767233.53162661
3086021.679182311767246.584750123086022.676883731767255.80782878
3086029.82680382 1767264.19921623086047.857279571767271.03647287
3086057.183048311767276.009231953086060.913355811767282.22509879
3086060.635141151767295.024613873086054.728656891767310.87530395
3086056.590201741767321.75684386 3086066.71879041767344.10522437
3086081.388380481767367.500846863086092.914276061767389.84922737
3086094.660991731767398.229788043086095.708561811767406.95975745
3086101.963798641767422.185448783086116.557273391767449.57253312
3086130.923058321767464.925520783086144.863319141767475.88809729
3086160.827854141767489.274881543086177.99448648 1767510.8995102
3086212.573813651767553.751458623086220.985214141767561.98963112
 3086227.33657941767567.996180793086236.77848965 1767582.5844062
3086256.519919981767611.074178623086268.419174391767629.86547962
3086277.517581391767644.624964543086285.24263155 1767652.3480462
3086300.177312991767664.533389293086310.820336311767678.43526436
3086318.202211311767694.396190453086326.696616891767708.75114861
 3086354.16309741767731.748806033086377.210623471767751.37245445
3086381.473738311767754.901974953086382.093487721767755.41181645
3086383.765400391767756.808139123086385.045581561767757.83963312
3086385.766708731767758.367847283086386.829698731767759.16213703
3086389.334943061767760.593564613086391.904163641767762.04730187
3086395.682043221767764.12439746 3086399.02914941767765.96724154
3086403.016018061767768.124717533086407.31489398 1767770.2356057
3086430.54942757 1767778.70606123086469.150400221767790.17224562
3086523.065974821767805.705022953086549.906472311767810.73618087
3086560.472067981767811.524237043086587.12555797 1767813.0150477
3086632.045743731767801.088562373086652.973851471767791.06266378
3086655.535854241767789.841537623086670.417386141767782.60926862
3086680.104702731767778.41701978 3086690.29825191767775.88749729
3086713.403848721767773.35699053 3086780.82956691767762.00235446
3086810.669730311767761.127684283086825.778952061767765.10274196
3086841.828788731767774.571226953086862.839573471767786.67979853
3086883.298850151767795.136146463086921.244968471767808.37758979
3086960.893183141767826.350979033086985.389525231767842.53467371
3086997.811088311767856.635695373087006.649981391767877.14155987
 3087008.69722141767897.330167793087008.877011061767910.00041804
3087007.541383821767919.046659783087005.468225231767930.31796271
3086997.337992151767960.737849373086990.671994981767978.12757836
3086988.25795782 1767988.56194073086987.931186811767997.87360187
3086990.545354811768004.897866043086997.73497298 1768011.4319737
3087012.603381561768020.579921293087023.55119431 1768024.6642307
3087043.238490891768028.594012873087066.616068811768028.74558736
3087070.579643561768027.386994293087082.470039731768025.17932154
3087091.360113811768021.499866953087134.136931151768003.35193737
3087221.803422481767975.746677623087226.84737565 1767974.5718112
3087230.967446151767973.505212293087240.286981311767971.56722404
3087268.26395948 1767960.11121023087315.095230641767938.71230286
3087320.029275891767935.877334793087346.073515151767920.59357271
3087383.771602481767900.082458873087414.023510471767883.28131136
3087431.82137515 1767880.5956212 3087482.08603841767880.08282696
3087514.911432061767884.184852873087522.435367151767887.76522629
3087528.717178731767892.065414533087538.902853891767899.69728903
3087544.663997231767905.717290123087551.065559221767921.14737737
3087568.690195891767949.988198953087588.249539971767992.68693244
3087604.391568061768025.846643033087608.523777651768057.06147562
3087618.625135391768092.40786162 3087623.81377331768103.27562204
3087628.059171651768107.409800113087635.612962311768113.14272828
3087647.497452971768123.923546613087660.454776141768131.58593287
3087682.502304231768148.040624373087704.521617141768173.30304104
3087712.102638721768201.813154623087713.185313731768211.91812128
 3087724.0146884 1768235.37640773087744.229214891768263.88652128
3087769.136317311768290.59250462 3087784.65826791768297.81033795
3087819.312069981768315.854921283087840.499363561768321.38181312
3087867.143667221768324.133119963087904.007438641768342.81221645
3087941.382035811768377.618577293087954.693032821768392.97418962
3087986.753336151768430.341568953088006.892403481768452.56396545
3088021.128595471768470.61937554 3088032.5869059 1768486.9388967
3088036.059011821768501.522200873088036.753564221768510.89718212
3088043.003551721768524.785933873088055.150837141768534.17469461
3088059.603256061768541.222580793088073.602571891768567.73532304
3088090.668810731768614.656489033088094.224577891768629.23027879
3088106.31280831 1768640.2496137 3088148.9784054 1768656.2456447
3088192.497019141768678.358133293088226.629168731768691.15469562
3088276.337074561768723.744197373088304.138200061768750.51678161
3088320.848796561768802.059001373088329.02660173 1768831.5622232
3088334.477706311768862.773446873088366.12134381 1768927.4675432
3088380.156420721768947.702738963088406.653414981768970.47861204
3088436.16385464 1768993.58355273088453.072941561769006.38339587
3088465.572916571769011.244278543088484.322879061769026.52213512
3088490.370439141769040.285230953088516.697486221769070.51482928
3088555.096359571769102.506235123088578.206549561769118.85758036
3088596.339387311769122.056720963088608.07263157 1769124.9002192
3088617.348531651769125.491097293088630.444634071769120.76997812
3088645.908841981769118.721425793088659.103041311769111.77655779
3088668.304466471769107.610227543088677.853003811769100.66568762
3088684.990456731769099.253616963088691.072465571769090.46196787
3088689.840184551769080.977406783088685.527857231769073.58634545
3088676.779843231769057.449894793088673.33037506 1769049.6897397
 3088672.84940491769026.792803873088682.912048821769010.02512087
3088712.541910811768982.079310633088751.675362721768962.79654078
3088775.188439061768958.964527463088784.725821551768957.21649945
3088790.308159491768958.93368761 3088796.83537741768965.03013211
3088804.135887731768977.308978953088805.080767721768991.99202046
3088803.681164231769010.245920963088798.846528231769024.74622004
3088795.110315231769032.875468873088794.89082748 1769039.2468472
3088793.497129491769041.312131793088790.865901141769042.92531754
 3088789.80389541769047.476161453088788.059148221769051.49616654
3088784.265848731769054.074901543088779.080819731769055.71859904
3088761.416813061769062.510908293088750.352202641769072.60242353
3088744.140600891769080.752997793088741.423086641769085.79859138
3088742.393557151769104.429131543088744.529051561769126.94056945
3088749.381732151769135.285369043088763.745876641769142.85425153